  
       XFOIL         Version 6.99
  
 Calculated polar for: NACA 0012                                       
  
 1 1 Reynolds number fixed          Mach number fixed         
  
 xtrf =   1.000 (top)        1.000 (bottom)  
 Mach =   0.000     Re =     0.050 e 6     Ncrit =   9.000  9.000
  
   alpha    CL        CD       CDp       CM     Top_Xtr  Bot_Xtr  Top_Itr  Bot_Itr
  ------ -------- --------- --------- -------- -------- -------- -------- --------
   0.000   0.0000   0.02079   0.00828  -0.0000   1.0000   1.0000   1.0000 160.0000
   0.010  -0.0005   0.02079   0.00828   0.0002   1.0000   1.0000   1.0000 160.0000
   0.020  -0.0011   0.02079   0.00828   0.0004   1.0000   1.0000   1.0000 160.0000
   0.030  -0.0016   0.02079   0.00828   0.0006   1.0000   1.0000   1.0000 160.0000
   0.040  -0.0022   0.02079   0.00828   0.0008   1.0000   1.0000   1.0000 160.0000
   0.050  -0.0027   0.02079   0.00828   0.0010   1.0000   1.0000   1.0000 160.0000
   0.060  -0.0032   0.02079   0.00828   0.0012   1.0000   1.0000   1.0000 160.0000
   0.070  -0.0038   0.02079   0.00829   0.0014   1.0000   1.0000   1.0000 160.0000
   0.080  -0.0043   0.02079   0.00829   0.0016   1.0000   1.0000   1.0000 160.0000
   0.090  -0.0048   0.02080   0.00829   0.0018   1.0000   1.0000   1.0000 160.0000
   0.100  -0.0054   0.02080   0.00829   0.0020   1.0000   1.0000   1.0000 160.0000
   0.110  -0.0059   0.02080   0.00829   0.0022   1.0000   1.0000   1.0000 160.0000
   0.120  -0.0064   0.02080   0.00829   0.0024   1.0000   1.0000   1.0000 160.0000
   0.130  -0.0070   0.02080   0.00829   0.0026   1.0000   1.0000   1.0000 160.0000
   0.140  -0.0075   0.02081   0.00830   0.0028   1.0000   1.0000   1.0000 160.0000
   0.150  -0.0080   0.02081   0.00830   0.0030   1.0000   1.0000   1.0000 160.0000
   0.160  -0.0085   0.02081   0.00830   0.0032   1.0000   1.0000   1.0000 160.0000
   0.170  -0.0090   0.02081   0.00830   0.0033   1.0000   1.0000   1.0000 160.0000
   0.180  -0.0095   0.02082   0.00830   0.0035   1.0000   1.0000   1.0000 160.0000
   0.190  -0.0100   0.02082   0.00831   0.0037   1.0000   1.0000   1.0000 160.0000
   0.200  -0.0105   0.02082   0.00831   0.0039   1.0000   1.0000   1.0000 160.0000
   0.210  -0.0110   0.02083   0.00831   0.0041   1.0000   1.0000   1.0000 160.0000
   0.220  -0.0115   0.02083   0.00831   0.0043   1.0000   1.0000   1.0000 160.0000
   0.230  -0.0120   0.02083   0.00832   0.0045   1.0000   1.0000   1.0000 160.0000
   0.240  -0.0125   0.02084   0.00832   0.0047   1.0000   1.0000   1.0000 160.0000
   0.250  -0.0129   0.02084   0.00832   0.0049   1.0000   1.0000   1.0000 160.0000
   0.260  -0.0134   0.02085   0.00833   0.0051   1.0000   1.0000   1.0000 160.0000
   0.270  -0.0139   0.02085   0.00833   0.0052   1.0000   1.0000   1.0000 160.0000
   0.280  -0.0143   0.02086   0.00833   0.0054   1.0000   1.0000   1.0000 160.0000
   0.290  -0.0148   0.02086   0.00834   0.0056   1.0000   1.0000   1.0000 160.0000
   0.300  -0.0152   0.02087   0.00834   0.0058   1.0000   1.0000   1.0000 160.0000
   0.310  -0.0157   0.02087   0.00835   0.0060   1.0000   1.0000   1.0000 160.0000
   0.320  -0.0161   0.02088   0.00835   0.0061   1.0000   1.0000   1.0000 160.0000
   0.330  -0.0165   0.02088   0.00836   0.0063   1.0000   1.0000   1.0000 160.0000
   0.340  -0.0169   0.02089   0.00836   0.0065   1.0000   1.0000   1.0000 160.0000
   0.350  -0.0174   0.02090   0.00836   0.0067   1.0000   1.0000   1.0000 160.0000
   0.360  -0.0178   0.02090   0.00837   0.0069   1.0000   1.0000   1.0000 160.0000
   0.370  -0.0182   0.02091   0.00837   0.0070   1.0000   1.0000   1.0000 160.0000
   0.380  -0.0186   0.02091   0.00838   0.0072   1.0000   1.0000   1.0000 160.0000
   0.390  -0.0189   0.02092   0.00838   0.0074   1.0000   1.0000   1.0000 160.0000
   0.400  -0.0193   0.02093   0.00839   0.0076   1.0000   1.0000   1.0000 160.0000
   0.410  -0.0197   0.02094   0.00840   0.0077   1.0000   1.0000   1.0000 160.0000
   0.420  -0.0201   0.02094   0.00840   0.0079   1.0000   1.0000   1.0000 160.0000
   0.430  -0.0204   0.02095   0.00841   0.0081   1.0000   1.0000   1.0000 160.0000
   0.440  -0.0208   0.02096   0.00841   0.0082   1.0000   1.0000   1.0000 160.0000
   0.450  -0.0211   0.02097   0.00842   0.0084   1.0000   1.0000   1.0000 160.0000
   0.460  -0.0214   0.02097   0.00843   0.0086   1.0000   1.0000   1.0000 160.0000
   0.470  -0.0218   0.02098   0.00843   0.0087   1.0000   1.0000   1.0000 160.0000
   0.480  -0.0221   0.02099   0.00844   0.0089   1.0000   1.0000   1.0000 160.0000
   0.490  -0.0224   0.02100   0.00845   0.0090   1.0000   1.0000   1.0000 160.0000
   0.500  -0.0227   0.02101   0.00845   0.0092   1.0000   1.0000   1.0000 160.0000
   0.510  -0.0230   0.02102   0.00846   0.0094   1.0000   1.0000   1.0000 160.0000
   0.520  -0.0233   0.02103   0.00847   0.0095   1.0000   1.0000   1.0000 160.0000
   0.530  -0.0236   0.02104   0.00848   0.0097   1.0000   1.0000   1.0000 160.0000
   0.540  -0.0238   0.02105   0.00848   0.0098   1.0000   1.0000   1.0000 160.0000
   0.550  -0.0241   0.02106   0.00849   0.0100   1.0000   1.0000   1.0000 160.0000
   0.560  -0.0243   0.02107   0.00850   0.0101   1.0000   1.0000   1.0000 160.0000
   0.570  -0.0246   0.02108   0.00851   0.0103   1.0000   1.0000   1.0000 160.0000
   0.580  -0.0248   0.02109   0.00852   0.0104   1.0000   1.0000   1.0000 160.0000
   0.590  -0.0251   0.02110   0.00852   0.0106   1.0000   1.0000   1.0000 160.0000
   0.600  -0.0253   0.02111   0.00853   0.0107   1.0000   1.0000   1.0000 160.0000
   0.610  -0.0255   0.02112   0.00854   0.0108   1.0000   1.0000   1.0000 160.0000
   0.620  -0.0257   0.02113   0.00855   0.0110   1.0000   1.0000   1.0000 160.0000
   0.630  -0.0259   0.02114   0.00856   0.0111   1.0000   1.0000   1.0000 160.0000
   0.640  -0.0261   0.02115   0.00857   0.0113   1.0000   1.0000   1.0000 160.0000
   0.650  -0.0263   0.02116   0.00858   0.0114   1.0000   1.0000   1.0000 160.0000
   0.660  -0.0265   0.02118   0.00859   0.0115   1.0000   1.0000   1.0000 160.0000
   0.670  -0.0266   0.02119   0.00860   0.0117   1.0000   1.0000   1.0000 160.0000
   0.680  -0.0268   0.02120   0.00861   0.0118   1.0000   1.0000   1.0000 160.0000
   0.690  -0.0270   0.02121   0.00862   0.0119   1.0000   1.0000   1.0000 160.0000
   0.700  -0.0271   0.02123   0.00863   0.0121   1.0000   1.0000   1.0000 160.0000
   0.710  -0.0273   0.02124   0.00864   0.0122   1.0000   1.0000   1.0000 160.0000
   0.720  -0.0274   0.02125   0.00865   0.0123   1.0000   1.0000   1.0000 160.0000
   0.730  -0.0275   0.02127   0.00866   0.0125   1.0000   1.0000   1.0000 160.0000
   0.740  -0.0277   0.02128   0.00867   0.0126   1.0000   1.0000   1.0000 160.0000
   0.750  -0.0278   0.02129   0.00868   0.0127   1.0000   1.0000   1.0000 160.0000
   0.760  -0.0279   0.02131   0.00869   0.0128   1.0000   1.0000   1.0000 160.0000
   0.770  -0.0280   0.02132   0.00871   0.0130   1.0000   1.0000   1.0000 160.0000
   0.780  -0.0281   0.02133   0.00872   0.0131   1.0000   1.0000   1.0000 160.0000
   0.790  -0.0282   0.02135   0.00873   0.0132   1.0000   1.0000   1.0000 160.0000
   0.800  -0.0283   0.02136   0.00874   0.0133   1.0000   1.0000   1.0000 160.0000
   0.810  -0.0284   0.02138   0.00875   0.0134   1.0000   1.0000   1.0000 160.0000
   0.820  -0.0285   0.02139   0.00877   0.0136   1.0000   1.0000   1.0000 160.0000
   0.830  -0.0286   0.02141   0.00878   0.0137   1.0000   1.0000   1.0000 160.0000
   0.840  -0.0286   0.02142   0.00879   0.0138   1.0000   1.0000   1.0000 160.0000
   0.850  -0.0287   0.02144   0.00880   0.0139   1.0000   1.0000   1.0000 160.0000
   0.860  -0.0287   0.02145   0.00882   0.0140   1.0000   1.0000   1.0000 160.0000
   0.870  -0.0288   0.02147   0.00883   0.0141   1.0000   1.0000   1.0000 160.0000
   0.880  -0.0288   0.02149   0.00884   0.0142   1.0000   1.0000   1.0000 160.0000
   0.890  -0.0289   0.02150   0.00886   0.0144   1.0000   1.0000   1.0000 160.0000
   0.900  -0.0289   0.02152   0.00887   0.0145   1.0000   1.0000   1.0000 160.0000
   0.910  -0.0289   0.02153   0.00888   0.0146   1.0000   1.0000   1.0000 160.0000
   0.920  -0.0289   0.02155   0.00890   0.0147   1.0000   1.0000   1.0000 160.0000
   0.930  -0.0289   0.02157   0.00891   0.0148   1.0000   1.0000   1.0000 160.0000
   0.940  -0.0289   0.02159   0.00893   0.0149   1.0000   1.0000   1.0000 160.0000
   0.950  -0.0289   0.02160   0.00894   0.0150   1.0000   1.0000   1.0000 160.0000
   0.960  -0.0289   0.02162   0.00896   0.0151   1.0000   1.0000   1.0000 160.0000
   0.970  -0.0289   0.02164   0.00897   0.0152   1.0000   1.0000   1.0000 160.0000
   0.980  -0.0289   0.02166   0.00899   0.0153   1.0000   1.0000   1.0000 160.0000
   0.990  -0.0288   0.02167   0.00900   0.0154   1.0000   1.0000   1.0000 160.0000
   1.000  -0.0288   0.02169   0.00902   0.0155   1.0000   1.0000   1.0000 160.0000
   1.010  -0.0287   0.02171   0.00903   0.0156   1.0000   1.0000   1.0000 160.0000
   1.020  -0.0287   0.02173   0.00905   0.0157   1.0000   1.0000   1.0000 160.0000
   1.030  -0.0286   0.02175   0.00907   0.0157   1.0000   1.0000   1.0000 160.0000
   1.040  -0.0285   0.02177   0.00908   0.0158   1.0000   1.0000   1.0000 160.0000
   1.050  -0.0285   0.02179   0.00910   0.0159   1.0000   1.0000   1.0000 160.0000
   1.060  -0.0284   0.02181   0.00912   0.0160   1.0000   1.0000   1.0000 160.0000
   1.070  -0.0283   0.02183   0.00913   0.0161   1.0000   1.0000   1.0000 160.0000
   1.080  -0.0282   0.02184   0.00915   0.0162   1.0000   1.0000   1.0000 160.0000
   1.090  -0.0281   0.02187   0.00917   0.0163   1.0000   1.0000   1.0000 160.0000
   1.100  -0.0280   0.02189   0.00918   0.0163   1.0000   1.0000   1.0000 160.0000
   1.110  -0.0279   0.02191   0.00920   0.0164   1.0000   1.0000   1.0000 160.0000
   1.120  -0.0278   0.02193   0.00922   0.0165   1.0000   1.0000   1.0000 160.0000
   1.130  -0.0276   0.02195   0.00924   0.0166   1.0000   1.0000   1.0000 160.0000
   1.140  -0.0275   0.02197   0.00926   0.0167   1.0000   1.0000   1.0000 160.0000
   1.150  -0.0274   0.02199   0.00927   0.0167   1.0000   1.0000   1.0000 160.0000
   1.160  -0.0272   0.02201   0.00929   0.0168   1.0000   1.0000   1.0000 160.0000
   1.170  -0.0271   0.02203   0.00931   0.0169   1.0000   1.0000   1.0000 160.0000
   1.180  -0.0269   0.02205   0.00933   0.0170   1.0000   1.0000   1.0000 160.0000
   1.190  -0.0268   0.02208   0.00935   0.0170   1.0000   1.0000   1.0000 160.0000
   1.200  -0.0266   0.02210   0.00937   0.0171   1.0000   1.0000   1.0000 160.0000
   1.210  -0.0264   0.02212   0.00939   0.0172   1.0000   1.0000   1.0000 160.0000
   1.220  -0.0263   0.02214   0.00941   0.0172   1.0000   1.0000   1.0000 160.0000
   1.230  -0.0261   0.02217   0.00943   0.0173   1.0000   1.0000   1.0000 160.0000
   1.240  -0.0259   0.02219   0.00945   0.0174   1.0000   1.0000   1.0000 160.0000
   1.250  -0.0257   0.02221   0.00947   0.0174   1.0000   1.0000   1.0000 160.0000
   1.260  -0.0255   0.02223   0.00949   0.0175   1.0000   1.0000   1.0000 160.0000
   1.270  -0.0253   0.02226   0.00951   0.0176   1.0000   1.0000   1.0000 160.0000
   1.280  -0.0251   0.02228   0.00953   0.0176   1.0000   1.0000   1.0000 160.0000
   1.290  -0.0249   0.02230   0.00955   0.0177   1.0000   1.0000   1.0000 160.0000
   1.300  -0.0247   0.02233   0.00958   0.0177   1.0000   1.0000   1.0000 160.0000
   1.310  -0.0245   0.02235   0.00960   0.0178   1.0000   1.0000   1.0000 160.0000
   1.320  -0.0243   0.02238   0.00962   0.0179   1.0000   1.0000   1.0000 160.0000
   1.330  -0.0240   0.02240   0.00964   0.0179   1.0000   1.0000   1.0000 160.0000
   1.340  -0.0238   0.02243   0.00966   0.0180   1.0000   1.0000   1.0000 160.0000
   1.350  -0.0236   0.02245   0.00969   0.0180   1.0000   1.0000   1.0000 160.0000
   1.360  -0.0233   0.02248   0.00971   0.0181   1.0000   1.0000   1.0000 160.0000
   1.370  -0.0200   0.02252   0.00976   0.0176   0.9990   1.0000   1.1171 160.0000
   1.380  -0.0164   0.02257   0.00981   0.0170   0.9979   1.0000   1.2474 160.0000
   1.390  -0.0129   0.02262   0.00986   0.0165   0.9969   1.0000   1.3735 160.0000
   1.400  -0.0095   0.02267   0.00991   0.0159   0.9959   1.0000   1.4955 160.0000
   1.410  -0.0060   0.02272   0.00997   0.0154   0.9949   1.0000   1.6167 160.0000
   1.420  -0.0026   0.02277   0.01002   0.0149   0.9939   1.0000   1.7284 160.0000
   1.430   0.0009   0.02283   0.01008   0.0144   0.9930   1.0000   1.8346 160.0000
   1.440   0.0044   0.02289   0.01013   0.0139   0.9922   1.0000   1.9316 160.0000
   1.450   0.0078   0.02294   0.01018   0.0134   0.9913   1.0000   2.0306 160.0000
   1.460   0.0110   0.02297   0.01022   0.0129   0.9901   1.0000   2.1368 160.0000
   1.470   0.0141   0.02301   0.01027   0.0124   0.9889   1.0000   2.2409 160.0000
   1.480   0.0173   0.02305   0.01031   0.0119   0.9878   1.0000   2.3421 160.0000
   1.490   0.0206   0.02310   0.01036   0.0115   0.9867   1.0000   2.4397 160.0000
   1.500   0.0239   0.02314   0.01040   0.0110   0.9856   1.0000   2.5337 160.0000
   1.510   0.0273   0.02319   0.01045   0.0105   0.9846   1.0000   2.6269 160.0000
   1.520   0.0308   0.02324   0.01050   0.0100   0.9836   1.0000   2.7103 160.0000
   1.530   0.0343   0.02329   0.01055   0.0094   0.9827   1.0000   2.7929 160.0000
   1.540   0.0380   0.02334   0.01060   0.0089   0.9818   1.0000   2.8715 160.0000
   1.550   0.0418   0.02339   0.01066   0.0083   0.9810   1.0000   2.9460 160.0000
   1.560   0.0453   0.02344   0.01070   0.0078   0.9800   1.0000   3.0247 160.0000
   1.570   0.0478   0.02346   0.01073   0.0075   0.9787   1.0000   3.1262 160.0000
   1.580   0.0506   0.02349   0.01077   0.0071   0.9774   1.0000   3.2240 160.0000
   1.590   0.0535   0.02352   0.01080   0.0067   0.9762   1.0000   3.3182 160.0000
   1.600   0.0565   0.02356   0.01084   0.0063   0.9750   1.0000   3.4089 160.0000
   1.610   0.0597   0.02360   0.01088   0.0058   0.9738   1.0000   3.4958 160.0000
   1.620   0.0630   0.02363   0.01092   0.0053   0.9727   1.0000   3.5789 160.0000
   1.630   0.0664   0.02367   0.01097   0.0048   0.9717   1.0000   3.6583 160.0000
   1.640   0.0700   0.02372   0.01101   0.0043   0.9707   1.0000   3.7340 160.0000
   1.650   0.0737   0.02376   0.01106   0.0038   0.9698   1.0000   3.8060 160.0000
   1.660   0.0776   0.02380   0.01110   0.0032   0.9689   1.0000   3.8746 160.0000
   1.670   0.0816   0.02385   0.01115   0.0026   0.9680   1.0000   3.9397 160.0000
   1.680   0.0857   0.02389   0.01120   0.0020   0.9672   1.0000   4.0026 160.0000
   1.690   0.0874   0.02391   0.01122   0.0018   0.9657   1.0000   4.1029 160.0000
   1.700   0.0896   0.02393   0.01124   0.0016   0.9643   1.0000   4.1986 160.0000
   1.710   0.0921   0.02396   0.01127   0.0013   0.9630   1.0000   4.2899 160.0000
   1.720   0.0948   0.02398   0.01130   0.0009   0.9617   1.0000   4.3774 160.0000
   1.730   0.0978   0.02401   0.01133   0.0005   0.9605   1.0000   4.4613 160.0000
   1.740   0.1010   0.02404   0.01137   0.0000   0.9593   1.0000   4.5414 160.0000
   1.750   0.1044   0.02407   0.01140  -0.0004   0.9582   1.0000   4.6179 160.0000
   1.760   0.1081   0.02411   0.01144  -0.0009   0.9572   1.0000   4.6908 160.0000
   1.770   0.1119   0.02414   0.01148  -0.0015   0.9562   1.0000   4.7600 160.0000
   1.780   0.1159   0.02417   0.01151  -0.0021   0.9552   1.0000   4.8258 160.0000
   1.790   0.1201   0.02421   0.01155  -0.0027   0.9543   1.0000   4.8882 160.0000
   1.800   0.1245   0.02424   0.01159  -0.0033   0.9534   1.0000   4.9478 160.0000
   1.810   0.1288   0.02428   0.01163  -0.0039   0.9525   1.0000   5.0076 160.0000
   1.820   0.1298   0.02429   0.01164  -0.0040   0.9509   1.0000   5.1102 160.0000
   1.830   0.1314   0.02431   0.01166  -0.0041   0.9495   1.0000   5.2058 160.0000
   1.840   0.1336   0.02433   0.01168  -0.0044   0.9481   1.0000   5.2960 160.0000
   1.850   0.1361   0.02435   0.01171  -0.0047   0.9467   1.0000   5.3816 160.0000
   1.860   0.1390   0.02437   0.01174  -0.0050   0.9455   1.0000   5.4629 160.0000
   1.870   0.1422   0.02439   0.01176  -0.0055   0.9443   1.0000   5.5402 160.0000
   1.880   0.1457   0.02441   0.01179  -0.0059   0.9431   1.0000   5.6136 160.0000
   1.890   0.1495   0.02444   0.01182  -0.0065   0.9420   1.0000   5.6841 160.0000
   1.900   0.1535   0.02446   0.01185  -0.0070   0.9410   1.0000   5.7512 160.0000
   1.910   0.1577   0.02448   0.01188  -0.0076   0.9400   1.0000   5.8148 160.0000
   1.920   0.1623   0.02451   0.01190  -0.0083   0.9391   1.0000   5.8752 160.0000
   1.930   0.1671   0.02453   0.01193  -0.0089   0.9382   1.0000   5.9323 160.0000
   1.940   0.1721   0.02455   0.01196  -0.0097   0.9373   1.0000   5.9862 160.0000
   1.950   0.1734   0.02456   0.01198  -0.0097   0.9359   1.0000   6.0794 160.0000
   1.960   0.1742   0.02458   0.01199  -0.0097   0.9342   1.0000   6.1797 160.0000
   1.970   0.1758   0.02459   0.01201  -0.0099   0.9327   1.0000   6.2727 160.0000
   1.980   0.1781   0.02461   0.01203  -0.0101   0.9313   1.0000   6.3603 160.0000
   1.990   0.1808   0.02462   0.01205  -0.0105   0.9300   1.0000   6.4437 160.0000
   2.000   0.1840   0.02464   0.01207  -0.0108   0.9287   1.0000   6.5224 160.0000
   2.010   0.1875   0.02465   0.01209  -0.0113   0.9275   1.0000   6.5967 160.0000
   2.020   0.1914   0.02466   0.01211  -0.0118   0.9264   1.0000   6.6668 160.0000
   2.030   0.1957   0.02467   0.01212  -0.0124   0.9253   1.0000   6.7332 160.0000
   2.040   0.2003   0.02468   0.01214  -0.0130   0.9243   1.0000   6.7960 160.0000
   2.050   0.2052   0.02469   0.01216  -0.0137   0.9234   1.0000   6.8554 160.0000
   2.060   0.2105   0.02469   0.01217  -0.0145   0.9225   1.0000   6.9114 160.0000
   2.070   0.2161   0.02470   0.01218  -0.0153   0.9216   1.0000   6.9643 160.0000
   2.080   0.2196   0.02471   0.01220  -0.0157   0.9205   1.0000   7.0362 160.0000
   2.090   0.2190   0.02473   0.01222  -0.0155   0.9187   1.0000   7.1452 160.0000
   2.100   0.2199   0.02474   0.01223  -0.0155   0.9171   1.0000   7.2438 160.0000
   2.110   0.2217   0.02475   0.01225  -0.0156   0.9156   1.0000   7.3353 160.0000
   2.120   0.2243   0.02476   0.01226  -0.0159   0.9142   1.0000   7.4208 160.0000
   2.130   0.2275   0.02477   0.01227  -0.0163   0.9128   1.0000   7.5012 160.0000
   2.140   0.2313   0.02477   0.01228  -0.0168   0.9116   1.0000   7.5768 160.0000
   2.150   0.2355   0.02477   0.01229  -0.0173   0.9104   1.0000   7.6482 160.0000
   2.160   0.2403   0.02476   0.01229  -0.0180   0.9093   1.0000   7.7154 160.0000
   2.170   0.2456   0.02475   0.01230  -0.0187   0.9083   1.0000   7.7787 160.0000
   2.180   0.2512   0.02474   0.01230  -0.0195   0.9073   1.0000   7.8387 160.0000
   2.190   0.2572   0.02472   0.01229  -0.0203   0.9064   1.0000   7.8960 160.0000
   2.200   0.2637   0.02470   0.01228  -0.0213   0.9055   1.0000   7.9500 160.0000
   2.210   0.2703   0.02468   0.01227  -0.0222   0.9046   1.0000   8.0027 160.0000
   2.220   0.2680   0.02471   0.01230  -0.0217   0.9027   1.0000   8.1206 160.0000
   2.230   0.2680   0.02473   0.01232  -0.0215   0.9010   1.0000   8.2241 160.0000
   2.240   0.2695   0.02474   0.01233  -0.0216   0.8994   1.0000   8.3188 160.0000
   2.250   0.2721   0.02474   0.01234  -0.0218   0.8980   1.0000   8.4067 160.0000
   2.260   0.2755   0.02474   0.01234  -0.0222   0.8966   1.0000   8.4889 160.0000
   2.270   0.2797   0.02472   0.01234  -0.0228   0.8953   1.0000   8.5662 160.0000
   2.280   0.2843   0.02470   0.01233  -0.0233   0.8941   1.0000   8.6393 160.0000
   2.290   0.2892   0.02468   0.01232  -0.0240   0.8930   1.0000   8.7097 160.0000
   2.300   0.2941   0.02465   0.01230  -0.0246   0.8918   1.0000   8.7768 160.0000
   2.310   0.2993   0.02461   0.01228  -0.0253   0.8908   1.0000   8.8404 160.0000
   2.320   0.3048   0.02458   0.01225  -0.0260   0.8898   1.0000   8.9006 160.0000
   2.330   0.3106   0.02453   0.01222  -0.0267   0.8889   1.0000   8.9576 160.0000
   2.340   0.3145   0.02451   0.01220  -0.0272   0.8877   1.0000   9.0269 160.0000
   2.360   0.3130   0.02457   0.01226  -0.0266   0.8841   1.0000   9.2456 160.0000
   2.370   0.3143   0.02458   0.01227  -0.0266   0.8825   1.0000   9.3414 160.0000
   2.380   0.3165   0.02457   0.01227  -0.0268   0.8810   1.0000   9.4304 160.0000
   2.390   0.3193   0.02456   0.01226  -0.0270   0.8796   1.0000   9.5148 160.0000
   2.400   0.3228   0.02454   0.01225  -0.0274   0.8783   1.0000   9.5944 160.0000
   2.410   0.3267   0.02450   0.01223  -0.0278   0.8770   1.0000   9.6696 160.0000
   2.420   0.3310   0.02447   0.01220  -0.0283   0.8759   1.0000   9.7408 160.0000
   2.430   0.3357   0.02442   0.01216  -0.0289   0.8747   1.0000   9.8085 160.0000
   2.440   0.3407   0.02437   0.01212  -0.0294   0.8737   1.0000   9.8727 160.0000
   2.450   0.3459   0.02431   0.01208  -0.0300   0.8727   1.0000   9.9333 160.0000
   2.460   0.3513   0.02425   0.01203  -0.0307   0.8717   1.0000   9.9907 160.0000
   2.470   0.3503   0.02429   0.01206  -0.0304   0.8699   1.0000  10.0999 160.0000
   2.480   0.3497   0.02433   0.01209  -0.0301   0.8681   1.0000  10.2095 160.0000
   2.490   0.3503   0.02434   0.01211  -0.0300   0.8664   1.0000  10.3104 160.0000
   2.500   0.3519   0.02434   0.01211  -0.0300   0.8648   1.0000  10.4044 160.0000
   2.510   0.3542   0.02432   0.01210  -0.0302   0.8634   1.0000  10.4924 160.0000
   2.520   0.3570   0.02430   0.01208  -0.0304   0.8620   1.0000  10.5751 160.0000
   2.530   0.3604   0.02426   0.01205  -0.0307   0.8607   1.0000  10.6527 160.0000
   2.540   0.3641   0.02422   0.01202  -0.0311   0.8595   1.0000  10.7258 160.0000
   2.550   0.3681   0.02417   0.01198  -0.0315   0.8583   1.0000  10.7949 160.0000
   2.560   0.3723   0.02412   0.01194  -0.0319   0.8572   1.0000  10.8605 160.0000
   2.570   0.3768   0.02406   0.01188  -0.0324   0.8562   1.0000  10.9229 160.0000
   2.580   0.3815   0.02399   0.01183  -0.0329   0.8552   1.0000  10.9821 160.0000
   2.590   0.3814   0.02402   0.01185  -0.0327   0.8535   1.0000  11.0837 160.0000
   2.600   0.3806   0.02406   0.01189  -0.0323   0.8516   1.0000  11.1960 160.0000
   2.610   0.3809   0.02408   0.01191  -0.0322   0.8499   1.0000  11.2990 160.0000
   2.620   0.3821   0.02408   0.01191  -0.0322   0.8483   1.0000  11.3949 160.0000
   2.630   0.3839   0.02406   0.01190  -0.0323   0.8468   1.0000  11.4847 160.0000
   2.640   0.3863   0.02404   0.01188  -0.0324   0.8454   1.0000  11.5691 160.0000
   2.650   0.3891   0.02400   0.01185  -0.0326   0.8441   1.0000  11.6488 160.0000
   2.660   0.3923   0.02396   0.01181  -0.0328   0.8428   1.0000  11.7243 160.0000
   2.670   0.3957   0.02391   0.01176  -0.0331   0.8417   1.0000  11.7957 160.0000
   2.680   0.3993   0.02385   0.01171  -0.0334   0.8405   1.0000  11.8631 160.0000
   2.690   0.4031   0.02379   0.01166  -0.0337   0.8395   1.0000  11.9266 160.0000
   2.700   0.4070   0.02372   0.01160  -0.0340   0.8385   1.0000  11.9866 160.0000
   2.710   0.4065   0.02376   0.01163  -0.0338   0.8367   1.0000  12.0934 160.0000
   2.720   0.4059   0.02380   0.01167  -0.0335   0.8348   1.0000  12.2053 160.0000
   2.730   0.4062   0.02382   0.01169  -0.0334   0.8331   1.0000  12.3081 160.0000
   2.740   0.4073   0.02382   0.01169  -0.0333   0.8315   1.0000  12.4039 160.0000
   2.750   0.4088   0.02381   0.01168  -0.0333   0.8300   1.0000  12.4938 160.0000
   2.760   0.4109   0.02379   0.01166  -0.0334   0.8286   1.0000  12.5785 160.0000
   2.770   0.4132   0.02375   0.01163  -0.0335   0.8273   1.0000  12.6583 160.0000
   2.780   0.4159   0.02371   0.01159  -0.0336   0.8260   1.0000  12.7337 160.0000
   2.790   0.4187   0.02366   0.01154  -0.0338   0.8248   1.0000  12.8049 160.0000
   2.800   0.4218   0.02360   0.01149  -0.0340   0.8237   1.0000  12.8723 160.0000
   2.810   0.4249   0.02355   0.01143  -0.0342   0.8226   1.0000  12.9361 160.0000
   2.820   0.4282   0.02348   0.01137  -0.0344   0.8216   1.0000  12.9967 160.0000
   2.830   0.4271   0.02354   0.01143  -0.0340   0.8197   1.0000  13.1143 160.0000
   2.840   0.4268   0.02358   0.01146  -0.0338   0.8178   1.0000  13.2253 160.0000
   2.850   0.4272   0.02359   0.01148  -0.0337   0.8161   1.0000  13.3278 160.0000
   2.860   0.4282   0.02359   0.01148  -0.0336   0.8145   1.0000  13.4236 160.0000
   2.870   0.4296   0.02358   0.01146  -0.0336   0.8130   1.0000  13.5134 160.0000
   2.880   0.4314   0.02355   0.01144  -0.0336   0.8116   1.0000  13.5978 160.0000
   2.890   0.4334   0.02352   0.01141  -0.0336   0.8103   1.0000  13.6773 160.0000
   2.900   0.4356   0.02348   0.01137  -0.0337   0.8090   1.0000  13.7523 160.0000
   2.910   0.4380   0.02343   0.01132  -0.0338   0.8078   1.0000  13.8230 160.0000
   2.920   0.4406   0.02338   0.01127  -0.0338   0.8067   1.0000  13.8900 160.0000
   2.930   0.4433   0.02333   0.01121  -0.0339   0.8057   1.0000  13.9533 160.0000
   2.940   0.4451   0.02330   0.01118  -0.0339   0.8044   1.0000  14.0273 160.0000
   2.950   0.4443   0.02335   0.01124  -0.0337   0.8024   1.0000  14.1471 160.0000
   2.960   0.4443   0.02339   0.01127  -0.0335   0.8006   1.0000  14.2556 160.0000
   2.970   0.4448   0.02340   0.01128  -0.0333   0.7989   1.0000  14.3562 160.0000
   2.980   0.4457   0.02339   0.01127  -0.0333   0.7974   1.0000  14.4502 160.0000
   2.990   0.4470   0.02338   0.01126  -0.0332   0.7959   1.0000  14.5384 160.0000
   3.000   0.4486   0.02336   0.01123  -0.0332   0.7945   1.0000  14.6214 160.0000
   3.010   0.4503   0.02332   0.01120  -0.0332   0.7932   1.0000  14.6996 160.0000
   3.020   0.4523   0.02329   0.01116  -0.0332   0.7920   1.0000  14.7737 160.0000
   3.030   0.4544   0.02324   0.01112  -0.0332   0.7908   1.0000  14.8438 160.0000
   3.040   0.4566   0.02319   0.01106  -0.0332   0.7897   1.0000  14.9101 160.0000
   3.050   0.4589   0.02314   0.01101  -0.0332   0.7887   1.0000  14.9726 160.0000
   3.060   0.4594   0.02315   0.01102  -0.0331   0.7871   1.0000  15.0680 160.0000
   3.070   0.4590   0.02320   0.01106  -0.0329   0.7851   1.0000  15.1847 160.0000
   3.080   0.4592   0.02323   0.01109  -0.0327   0.7833   1.0000  15.2914 160.0000
   3.090   0.4599   0.02323   0.01109  -0.0326   0.7817   1.0000  15.3906 160.0000
   3.100   0.4608   0.02323   0.01109  -0.0325   0.7801   1.0000  15.4833 160.0000
   3.110   0.4620   0.02321   0.01107  -0.0324   0.7787   1.0000  15.5704 160.0000
   3.120   0.4635   0.02319   0.01104  -0.0323   0.7773   1.0000  15.6524 160.0000
   3.130   0.4651   0.02316   0.01101  -0.0323   0.7760   1.0000  15.7299 160.0000
   3.140   0.4668   0.02312   0.01097  -0.0322   0.7748   1.0000  15.8030 160.0000
   3.150   0.4687   0.02308   0.01092  -0.0322   0.7736   1.0000  15.8719 160.0000
   3.160   0.4706   0.02303   0.01087  -0.0322   0.7726   1.0000  15.9367 160.0000
   3.170   0.4725   0.02299   0.01081  -0.0321   0.7715   1.0000  15.9973 160.0000
   3.180   0.4720   0.02304   0.01087  -0.0319   0.7695   1.0000  16.1195 160.0000
   3.190   0.4720   0.02308   0.01091  -0.0317   0.7676   1.0000  16.2323 160.0000
   3.200   0.4724   0.02310   0.01092  -0.0316   0.7659   1.0000  16.3362 160.0000
   3.210   0.4732   0.02310   0.01092  -0.0315   0.7643   1.0000  16.4329 160.0000
   3.220   0.4741   0.02309   0.01091  -0.0314   0.7628   1.0000  16.5236 160.0000
   3.230   0.4753   0.02307   0.01089  -0.0313   0.7613   1.0000  16.6089 160.0000
   3.240   0.4767   0.02305   0.01086  -0.0312   0.7600   1.0000  16.6893 160.0000
   3.250   0.4782   0.02302   0.01083  -0.0311   0.7587   1.0000  16.7651 160.0000
   3.260   0.4797   0.02298   0.01079  -0.0310   0.7575   1.0000  16.8365 160.0000
   3.270   0.4814   0.02295   0.01074  -0.0310   0.7564   1.0000  16.9038 160.0000
   3.280   0.4831   0.02290   0.01069  -0.0309   0.7553   1.0000  16.9673 160.0000
   3.290   0.4838   0.02291   0.01069  -0.0308   0.7538   1.0000  17.0587 160.0000
   3.300   0.4836   0.02296   0.01074  -0.0306   0.7518   1.0000  17.1788 160.0000
   3.310   0.4839   0.02298   0.01077  -0.0304   0.7500   1.0000  17.2878 160.0000
   3.320   0.4845   0.02299   0.01077  -0.0303   0.7483   1.0000  17.3891 160.0000
   3.330   0.4853   0.02299   0.01077  -0.0302   0.7467   1.0000  17.4837 160.0000
   3.340   0.4863   0.02298   0.01075  -0.0301   0.7452   1.0000  17.5725 160.0000
   3.350   0.4875   0.02296   0.01073  -0.0300   0.7438   1.0000  17.6561 160.0000
   3.360   0.4887   0.02294   0.01070  -0.0298   0.7425   1.0000  17.7347 160.0000
   3.370   0.4901   0.02291   0.01066  -0.0297   0.7413   1.0000  17.8088 160.0000
   3.380   0.4916   0.02287   0.01062  -0.0297   0.7401   1.0000  17.8786 160.0000
   3.390   0.4931   0.02284   0.01057  -0.0296   0.7390   1.0000  17.9444 160.0000
   3.400   0.4945   0.02281   0.01053  -0.0295   0.7379   1.0000  18.0140 160.0000
   3.410   0.4943   0.02286   0.01059  -0.0293   0.7358   1.0000  18.1395 160.0000
   3.420   0.4945   0.02290   0.01062  -0.0291   0.7339   1.0000  18.2529 160.0000
   3.430   0.4950   0.02291   0.01063  -0.0290   0.7321   1.0000  18.3577 160.0000
   3.440   0.4957   0.02292   0.01063  -0.0289   0.7305   1.0000  18.4553 160.0000
   3.450   0.4966   0.02291   0.01062  -0.0287   0.7290   1.0000  18.5468 160.0000
   3.460   0.4976   0.02290   0.01060  -0.0286   0.7275   1.0000  18.6326 160.0000
   3.470   0.4988   0.02288   0.01057  -0.0285   0.7262   1.0000  18.7133 160.0000
   3.480   0.5000   0.02285   0.01054  -0.0284   0.7249   1.0000  18.7894 160.0000
   3.490   0.5014   0.02282   0.01050  -0.0283   0.7237   1.0000  18.8611 160.0000
   3.500   0.5028   0.02279   0.01045  -0.0282   0.7226   1.0000  18.9287 160.0000
   3.510   0.5043   0.02275   0.01040  -0.0281   0.7215   1.0000  18.9927 160.0000
   3.520   0.5043   0.02280   0.01045  -0.0279   0.7195   1.0000  19.1132 160.0000
   3.530   0.5044   0.02283   0.01049  -0.0278   0.7175   1.0000  19.2305 160.0000
   3.540   0.5049   0.02285   0.01051  -0.0276   0.7157   1.0000  19.3383 160.0000
   3.550   0.5055   0.02286   0.01051  -0.0275   0.7141   1.0000  19.4386 160.0000
   3.560   0.5064   0.02286   0.01050  -0.0274   0.7125   1.0000  19.5324 160.0000
   3.570   0.5073   0.02285   0.01049  -0.0272   0.7110   1.0000  19.6204 160.0000
   3.580   0.5084   0.02283   0.01046  -0.0271   0.7096   1.0000  19.7030 160.0000
   3.590   0.5096   0.02281   0.01043  -0.0270   0.7083   1.0000  19.7808 160.0000
   3.600   0.5108   0.02278   0.01039  -0.0269   0.7071   1.0000  19.8541 160.0000
   3.610   0.5121   0.02275   0.01035  -0.0267   0.7060   1.0000  19.9233 160.0000
   3.620   0.5135   0.02272   0.01030  -0.0266   0.7049   1.0000  19.9887 160.0000
   3.630   0.5137   0.02276   0.01034  -0.0265   0.7029   1.0000  20.1067 160.0000
   3.640   0.5139   0.02280   0.01038  -0.0264   0.7009   1.0000  20.2259 160.0000
   3.650   0.5143   0.02282   0.01040  -0.0262   0.6991   1.0000  20.3354 160.0000
   3.660   0.5150   0.02283   0.01040  -0.0261   0.6974   1.0000  20.4372 160.0000
   3.670   0.5158   0.02283   0.01040  -0.0260   0.6958   1.0000  20.5324 160.0000
   3.680   0.5167   0.02282   0.01038  -0.0258   0.6943   1.0000  20.6216 160.0000
   3.690   0.5177   0.02281   0.01035  -0.0257   0.6929   1.0000  20.7054 160.0000
   3.700   0.5188   0.02279   0.01032  -0.0256   0.6916   1.0000  20.7842 160.0000
   3.710   0.5200   0.02276   0.01028  -0.0254   0.6904   1.0000  20.8584 160.0000
   3.720   0.5213   0.02274   0.01024  -0.0253   0.6892   1.0000  20.9284 160.0000
   3.730   0.5226   0.02271   0.01019  -0.0252   0.6881   1.0000  20.9946 160.0000
   3.740   0.5227   0.02276   0.01025  -0.0250   0.6860   1.0000  21.1191 160.0000
   3.750   0.5229   0.02279   0.01028  -0.0249   0.6840   1.0000  21.2384 160.0000
   3.760   0.5234   0.02281   0.01030  -0.0248   0.6822   1.0000  21.3482 160.0000
   3.770   0.5241   0.02282   0.01031  -0.0247   0.6805   1.0000  21.4505 160.0000
   3.780   0.5249   0.02282   0.01030  -0.0245   0.6789   1.0000  21.5462 160.0000
   3.790   0.5258   0.02282   0.01028  -0.0244   0.6774   1.0000  21.6359 160.0000
   3.800   0.5268   0.02280   0.01026  -0.0243   0.6760   1.0000  21.7203 160.0000
   3.810   0.5279   0.02279   0.01022  -0.0241   0.6746   1.0000  21.7997 160.0000
   3.820   0.5290   0.02276   0.01019  -0.0240   0.6734   1.0000  21.8746 160.0000
   3.830   0.5303   0.02274   0.01014  -0.0238   0.6722   1.0000  21.9453 160.0000
   3.840   0.5313   0.02273   0.01012  -0.0237   0.6709   1.0000  22.0244 160.0000
   3.850   0.5314   0.02278   0.01017  -0.0236   0.6687   1.0000  22.1542 160.0000
   3.860   0.5317   0.02281   0.01020  -0.0235   0.6668   1.0000  22.2720 160.0000
   3.870   0.5323   0.02283   0.01022  -0.0233   0.6649   1.0000  22.3810 160.0000
   3.880   0.5330   0.02283   0.01022  -0.0232   0.6632   1.0000  22.4826 160.0000
   3.890   0.5338   0.02283   0.01021  -0.0231   0.6616   1.0000  22.5777 160.0000
   3.900   0.5347   0.02283   0.01019  -0.0229   0.6602   1.0000  22.6669 160.0000
   3.910   0.5357   0.02282   0.01016  -0.0228   0.6588   1.0000  22.7507 160.0000
   3.920   0.5368   0.02280   0.01013  -0.0227   0.6574   1.0000  22.8297 160.0000
   3.930   0.5379   0.02278   0.01009  -0.0225   0.6562   1.0000  22.9042 160.0000
   3.940   0.5391   0.02276   0.01004  -0.0224   0.6550   1.0000  22.9744 160.0000
   3.950   0.5396   0.02278   0.01007  -0.0223   0.6532   1.0000  23.0819 160.0000
   3.960   0.5399   0.02282   0.01011  -0.0222   0.6511   1.0000  23.2082 160.0000
   3.970   0.5404   0.02285   0.01014  -0.0220   0.6492   1.0000  23.3230 160.0000
   3.980   0.5410   0.02286   0.01015  -0.0219   0.6474   1.0000  23.4297 160.0000
   3.990   0.5418   0.02287   0.01014  -0.0218   0.6458   1.0000  23.5293 160.0000
   4.000   0.5426   0.02287   0.01013  -0.0217   0.6442   1.0000  23.6227 160.0000
   4.010   0.5435   0.02286   0.01011  -0.0215   0.6427   1.0000  23.7104 160.0000
   4.020   0.5446   0.02285   0.01008  -0.0214   0.6414   1.0000  23.7931 160.0000
   4.030   0.5456   0.02283   0.01004  -0.0212   0.6401   1.0000  23.8711 160.0000
   4.040   0.5468   0.02281   0.01000  -0.0211   0.6388   1.0000  23.9445 160.0000
   4.050   0.5478   0.02281   0.00998  -0.0210   0.6375   1.0000  24.0273 160.0000
   4.060   0.5479   0.02286   0.01004  -0.0209   0.6353   1.0000  24.1593 160.0000
   4.070   0.5483   0.02289   0.01007  -0.0208   0.6333   1.0000  24.2793 160.0000
   4.080   0.5489   0.02291   0.01008  -0.0206   0.6314   1.0000  24.3907 160.0000
   4.090   0.5496   0.02292   0.01009  -0.0205   0.6297   1.0000  24.4947 160.0000
   4.100   0.5504   0.02292   0.01008  -0.0204   0.6280   1.0000  24.5921 160.0000
   4.110   0.5513   0.02292   0.01006  -0.0202   0.6265   1.0000  24.6836 160.0000
   4.120   0.5523   0.02291   0.01003  -0.0201   0.6251   1.0000  24.7698 160.0000
   4.130   0.5533   0.02290   0.01000  -0.0200   0.6237   1.0000  24.8509 160.0000
   4.140   0.5545   0.02288   0.00995  -0.0198   0.6224   1.0000  24.9272 160.0000
   4.160   0.5558   0.02291   0.00997  -0.0196   0.6190   1.0000  25.1334 160.0000
   4.170   0.5562   0.02295   0.01001  -0.0195   0.6170   1.0000  25.2562 160.0000
   4.180   0.5567   0.02297   0.01003  -0.0194   0.6151   1.0000  25.3707 160.0000
   4.190   0.5574   0.02298   0.01003  -0.0192   0.6133   1.0000  25.4775 160.0000
   4.200   0.5582   0.02299   0.01003  -0.0191   0.6116   1.0000  25.5774 160.0000
   4.210   0.5590   0.02299   0.01001  -0.0190   0.6100   1.0000  25.6712 160.0000
   4.220   0.5600   0.02298   0.00998  -0.0188   0.6086   1.0000  25.7595 160.0000
   4.230   0.5610   0.02297   0.00995  -0.0187   0.6072   1.0000  25.8424 160.0000
   4.240   0.5621   0.02296   0.00991  -0.0186   0.6059   1.0000  25.9202 160.0000
   4.250   0.5633   0.02295   0.00987  -0.0184   0.6047   1.0000  25.9933 160.0000
   4.260   0.5635   0.02299   0.00992  -0.0183   0.6025   1.0000  26.1224 160.0000
   4.270   0.5639   0.02303   0.00997  -0.0182   0.6004   1.0000  26.2476 160.0000
   4.280   0.5645   0.02305   0.00999  -0.0181   0.5985   1.0000  26.3634 160.0000
   4.290   0.5651   0.02307   0.00999  -0.0180   0.5967   1.0000  26.4716 160.0000
   4.300   0.5659   0.02308   0.00999  -0.0179   0.5950   1.0000  26.5730 160.0000
   4.310   0.5668   0.02308   0.00997  -0.0177   0.5934   1.0000  26.6683 160.0000
   4.320   0.5677   0.02307   0.00995  -0.0176   0.5919   1.0000  26.7580 160.0000
   4.330   0.5687   0.02307   0.00992  -0.0175   0.5905   1.0000  26.8424 160.0000
   4.340   0.5698   0.02306   0.00988  -0.0173   0.5892   1.0000  26.9217 160.0000
   4.350   0.5709   0.02305   0.00984  -0.0172   0.5880   1.0000  26.9963 160.0000
   4.360   0.5711   0.02310   0.00990  -0.0171   0.5857   1.0000  27.1295 160.0000
   4.370   0.5716   0.02313   0.00994  -0.0170   0.5836   1.0000  27.2559 160.0000
   4.380   0.5721   0.02316   0.00996  -0.0169   0.5817   1.0000  27.3732 160.0000
   4.390   0.5728   0.02317   0.00996  -0.0168   0.5799   1.0000  27.4828 160.0000
   4.400   0.5736   0.02318   0.00996  -0.0166   0.5782   1.0000  27.5855 160.0000
   4.410   0.5744   0.02318   0.00994  -0.0165   0.5765   1.0000  27.6821 160.0000
   4.420   0.5754   0.02318   0.00992  -0.0164   0.5750   1.0000  27.7727 160.0000
   4.430   0.5764   0.02317   0.00988  -0.0162   0.5736   1.0000  27.8580 160.0000
   4.440   0.5774   0.02317   0.00984  -0.0161   0.5723   1.0000  27.9380 160.0000
   4.450   0.5784   0.02317   0.00982  -0.0160   0.5708   1.0000  28.0242 160.0000
   4.460   0.5786   0.02322   0.00988  -0.0159   0.5686   1.0000  28.1606 160.0000
   4.470   0.5791   0.02325   0.00992  -0.0158   0.5665   1.0000  28.2858 160.0000
   4.480   0.5797   0.02327   0.00994  -0.0157   0.5646   1.0000  28.4025 160.0000
   4.490   0.5804   0.02329   0.00994  -0.0155   0.5627   1.0000  28.5116 160.0000
   4.500   0.5812   0.02330   0.00993  -0.0154   0.5610   1.0000  28.6140 160.0000
   4.510   0.5820   0.02330   0.00991  -0.0153   0.5594   1.0000  28.7099 160.0000
   4.520   0.5830   0.02330   0.00989  -0.0152   0.5579   1.0000  28.8000 160.0000
   4.530   0.5840   0.02330   0.00985  -0.0150   0.5565   1.0000  28.8844 160.0000
   4.540   0.5851   0.02329   0.00981  -0.0149   0.5552   1.0000  28.9635 160.0000
   4.550   0.5857   0.02332   0.00983  -0.0148   0.5534   1.0000  29.0707 160.0000
   4.560   0.5860   0.02336   0.00988  -0.0147   0.5512   1.0000  29.2043 160.0000
   4.570   0.5866   0.02339   0.00992  -0.0146   0.5492   1.0000  29.3269 160.0000
   4.580   0.5872   0.02341   0.00993  -0.0145   0.5473   1.0000  29.4415 160.0000
   4.590   0.5879   0.02343   0.00993  -0.0144   0.5455   1.0000  29.5490 160.0000
   4.600   0.5888   0.02343   0.00992  -0.0142   0.5438   1.0000  29.6499 160.0000
   4.610   0.5897   0.02344   0.00990  -0.0141   0.5422   1.0000  29.7445 160.0000
   4.620   0.5906   0.02344   0.00987  -0.0140   0.5408   1.0000  29.8334 160.0000
   4.630   0.5916   0.02344   0.00984  -0.0139   0.5394   1.0000  29.9167 160.0000
   4.640   0.5927   0.02344   0.00979  -0.0137   0.5381   1.0000  29.9949 160.0000
   4.650   0.5930   0.02348   0.00986  -0.0136   0.5358   1.0000  30.1293 160.0000
   4.660   0.5934   0.02352   0.00990  -0.0135   0.5337   1.0000  30.2587 160.0000
   4.670   0.5940   0.02355   0.00993  -0.0134   0.5317   1.0000  30.3793 160.0000
   4.680   0.5947   0.02357   0.00994  -0.0133   0.5298   1.0000  30.4923 160.0000
   4.690   0.5955   0.02358   0.00993  -0.0132   0.5281   1.0000  30.5985 160.0000
   4.700   0.5963   0.02359   0.00992  -0.0131   0.5264   1.0000  30.6979 160.0000
   4.710   0.5972   0.02359   0.00989  -0.0129   0.5249   1.0000  30.7912 160.0000
   4.720   0.5982   0.02359   0.00986  -0.0128   0.5234   1.0000  30.8785 160.0000
   4.730   0.5993   0.02360   0.00982  -0.0127   0.5220   1.0000  30.9602 160.0000
   4.740   0.5999   0.02362   0.00983  -0.0126   0.5203   1.0000  31.0680 160.0000
   4.750   0.6002   0.02367   0.00989  -0.0125   0.5180   1.0000  31.2040 160.0000
   4.760   0.6007   0.02370   0.00993  -0.0124   0.5159   1.0000  31.3293 160.0000
   4.770   0.6014   0.02372   0.00994  -0.0123   0.5140   1.0000  31.4465 160.0000
   4.780   0.6021   0.02374   0.00994  -0.0122   0.5122   1.0000  31.5564 160.0000
   4.790   0.6029   0.02375   0.00993  -0.0120   0.5104   1.0000  31.6594 160.0000
   4.800   0.6038   0.02376   0.00991  -0.0119   0.5088   1.0000  31.7560 160.0000
   4.810   0.6048   0.02376   0.00988  -0.0118   0.5073   1.0000  31.8461 160.0000
   4.820   0.6058   0.02377   0.00985  -0.0117   0.5060   1.0000  31.9304 160.0000
   4.830   0.6067   0.02378   0.00982  -0.0116   0.5045   1.0000  32.0169 160.0000
   4.840   0.6070   0.02383   0.00989  -0.0115   0.5022   1.0000  32.1555 160.0000
   4.850   0.6075   0.02387   0.00994  -0.0114   0.5001   1.0000  32.2839 160.0000
   4.860   0.6081   0.02389   0.00996  -0.0113   0.4981   1.0000  32.4040 160.0000
   4.870   0.6088   0.02392   0.00997  -0.0112   0.4962   1.0000  32.5167 160.0000
   4.880   0.6096   0.02393   0.00997  -0.0110   0.4945   1.0000  32.6223 160.0000
   4.890   0.6104   0.02394   0.00995  -0.0109   0.4928   1.0000  32.7215 160.0000
   4.900   0.6113   0.02395   0.00993  -0.0108   0.4913   1.0000  32.8145 160.0000
   4.910   0.6123   0.02396   0.00989  -0.0107   0.4899   1.0000  32.9012 160.0000
   4.920   0.6134   0.02397   0.00985  -0.0106   0.4885   1.0000  32.9824 160.0000
   4.930   0.6138   0.02401   0.00991  -0.0105   0.4865   1.0000  33.1071 160.0000
   4.940   0.6142   0.02405   0.00996  -0.0104   0.4842   1.0000  33.2410 160.0000
   4.950   0.6147   0.02408   0.00999  -0.0103   0.4822   1.0000  33.3647 160.0000
   4.960   0.6154   0.02411   0.01001  -0.0102   0.4803   1.0000  33.4807 160.0000
   4.970   0.6161   0.02413   0.01001  -0.0101   0.4785   1.0000  33.5893 160.0000
   4.980   0.6170   0.02414   0.01000  -0.0099   0.4768   1.0000  33.6912 160.0000
   4.990   0.6179   0.02416   0.00998  -0.0098   0.4752   1.0000  33.7867 160.0000
   5.000   0.6188   0.02416   0.00994  -0.0097   0.4737   1.0000  33.8760 160.0000
   5.010   0.6198   0.02417   0.00991  -0.0096   0.4724   1.0000  33.9592 160.0000
   5.020   0.6205   0.02421   0.00993  -0.0095   0.4706   1.0000  34.0672 160.0000
   5.030   0.6208   0.02425   0.00999  -0.0094   0.4683   1.0000  34.2034 160.0000
   5.040   0.6213   0.02429   0.01003  -0.0093   0.4662   1.0000  34.3295 160.0000
   5.050   0.6220   0.02432   0.01005  -0.0092   0.4643   1.0000  34.4479 160.0000
   5.060   0.6227   0.02434   0.01006  -0.0091   0.4625   1.0000  34.5586 160.0000
   5.070   0.6235   0.02436   0.01005  -0.0090   0.4607   1.0000  34.6626 160.0000
   5.080   0.6244   0.02437   0.01003  -0.0089   0.4591   1.0000  34.7599 160.0000
   5.090   0.6253   0.02439   0.01001  -0.0088   0.4576   1.0000  34.8509 160.0000
   5.100   0.6263   0.02440   0.00997  -0.0087   0.4562   1.0000  34.9359 160.0000
   5.110   0.6272   0.02442   0.00996  -0.0086   0.4547   1.0000  35.0270 160.0000
   5.120   0.6275   0.02447   0.01003  -0.0085   0.4525   1.0000  35.1639 160.0000
   5.130   0.6279   0.02451   0.01008  -0.0083   0.4504   1.0000  35.2914 160.0000
   5.140   0.6285   0.02455   0.01011  -0.0082   0.4484   1.0000  35.4111 160.0000
   5.150   0.6292   0.02457   0.01013  -0.0081   0.4465   1.0000  35.5231 160.0000
   5.160   0.6300   0.02460   0.01012  -0.0080   0.4448   1.0000  35.6282 160.0000
   5.170   0.6308   0.02461   0.01011  -0.0079   0.4432   1.0000  35.7268 160.0000
   5.180   0.6317   0.02463   0.01009  -0.0078   0.4416   1.0000  35.8192 160.0000
   5.190   0.6327   0.02464   0.01006  -0.0077   0.4402   1.0000  35.9057 160.0000
   5.200   0.6337   0.02466   0.01002  -0.0076   0.4389   1.0000  35.9867 160.0000
   5.210   0.6341   0.02471   0.01009  -0.0075   0.4368   1.0000  36.1131 160.0000
   5.220   0.6346   0.02476   0.01015  -0.0074   0.4347   1.0000  36.2425 160.0000
   5.230   0.6351   0.02480   0.01019  -0.0073   0.4327   1.0000  36.3646 160.0000
   5.240   0.6358   0.02483   0.01021  -0.0072   0.4308   1.0000  36.4790 160.0000
   5.250   0.6365   0.02485   0.01021  -0.0071   0.4290   1.0000  36.5866 160.0000
   5.260   0.6373   0.02487   0.01021  -0.0070   0.4273   1.0000  36.6875 160.0000
   5.270   0.6382   0.02489   0.01019  -0.0069   0.4258   1.0000  36.7821 160.0000
   5.280   0.6391   0.02491   0.01016  -0.0068   0.4243   1.0000  36.8706 160.0000
   5.290   0.6401   0.02493   0.01012  -0.0067   0.4230   1.0000  36.9535 160.0000
   5.300   0.6408   0.02496   0.01014  -0.0066   0.4213   1.0000  37.0542 160.0000
   5.310   0.6411   0.02501   0.01022  -0.0065   0.4191   1.0000  37.1866 160.0000
   5.320   0.6416   0.02506   0.01027  -0.0064   0.4171   1.0000  37.3101 160.0000
   5.330   0.6422   0.02509   0.01030  -0.0063   0.4152   1.0000  37.4264 160.0000
   5.340   0.6429   0.02512   0.01031  -0.0062   0.4134   1.0000  37.5356 160.0000
   5.350   0.6437   0.02515   0.01031  -0.0061   0.4117   1.0000  37.6382 160.0000
   5.360   0.6445   0.02517   0.01030  -0.0060   0.4101   1.0000  37.7344 160.0000
   5.370   0.6454   0.02519   0.01028  -0.0059   0.4086   1.0000  37.8245 160.0000
   5.380   0.6464   0.02521   0.01025  -0.0058   0.4073   1.0000  37.9089 160.0000
   5.390   0.6474   0.02523   0.01021  -0.0057   0.4060   1.0000  37.9883 160.0000
   5.400   0.6478   0.02529   0.01029  -0.0056   0.4040   1.0000  38.1086 160.0000
   5.410   0.6482   0.02534   0.01035  -0.0055   0.4019   1.0000  38.2352 160.0000
   5.420   0.6488   0.02538   0.01040  -0.0054   0.4000   1.0000  38.3528 160.0000
   5.430   0.6494   0.02542   0.01043  -0.0053   0.3982   1.0000  38.4636 160.0000
   5.440   0.6502   0.02545   0.01044  -0.0052   0.3964   1.0000  38.5679 160.0000
   5.450   0.6509   0.02548   0.01044  -0.0051   0.3948   1.0000  38.6659 160.0000
   5.460   0.6518   0.02550   0.01043  -0.0050   0.3933   1.0000  38.7578 160.0000
   5.470   0.6527   0.02553   0.01041  -0.0050   0.3919   1.0000  38.8441 160.0000
   5.480   0.6537   0.02555   0.01038  -0.0049   0.3906   1.0000  38.9254 160.0000
   5.490   0.6547   0.02558   0.01035  -0.0048   0.3893   1.0000  39.0035 160.0000
   5.500   0.6550   0.02564   0.01044  -0.0047   0.3873   1.0000  39.1291 160.0000
   5.510   0.6555   0.02569   0.01051  -0.0046   0.3853   1.0000  39.2488 160.0000
   5.520   0.6560   0.02573   0.01056  -0.0045   0.3834   1.0000  39.3624 160.0000
   5.530   0.6567   0.02577   0.01059  -0.0044   0.3817   1.0000  39.4699 160.0000
   5.540   0.6574   0.02580   0.01060  -0.0043   0.3800   1.0000  39.5717 160.0000
   5.550   0.6582   0.02583   0.01060  -0.0042   0.3784   1.0000  39.6675 160.0000
   5.560   0.6590   0.02586   0.01059  -0.0041   0.3770   1.0000  39.7577 160.0000
   5.570   0.6599   0.02588   0.01057  -0.0040   0.3756   1.0000  39.8425 160.0000
   5.580   0.6609   0.02591   0.01054  -0.0039   0.3743   1.0000  39.9223 160.0000
   5.590   0.6620   0.02594   0.01050  -0.0039   0.3730   1.0000  39.9979 160.0000
   5.600   0.6623   0.02600   0.01060  -0.0038   0.3711   1.0000  40.1176 160.0000
   5.610   0.6627   0.02605   0.01067  -0.0037   0.3692   1.0000  40.2343 160.0000
   5.620   0.6633   0.02610   0.01072  -0.0036   0.3674   1.0000  40.3452 160.0000
   5.630   0.6639   0.02614   0.01075  -0.0035   0.3656   1.0000  40.4504 160.0000
   5.640   0.6646   0.02618   0.01077  -0.0034   0.3640   1.0000  40.5501 160.0000
   5.650   0.6654   0.02621   0.01078  -0.0033   0.3625   1.0000  40.6442 160.0000
   5.660   0.6662   0.02624   0.01077  -0.0032   0.3610   1.0000  40.7329 160.0000
   5.670   0.6671   0.02626   0.01076  -0.0031   0.3597   1.0000  40.8163 160.0000
   5.680   0.6681   0.02629   0.01073  -0.0030   0.3584   1.0000  40.8950 160.0000
   5.690   0.6691   0.02632   0.01070  -0.0030   0.3572   1.0000  40.9693 160.0000
   5.700   0.6697   0.02638   0.01074  -0.0029   0.3556   1.0000  41.0642 160.0000
   5.710   0.6701   0.02644   0.01083  -0.0028   0.3538   1.0000  41.1785 160.0000
   5.720   0.6706   0.02649   0.01090  -0.0027   0.3520   1.0000  41.2863 160.0000
   5.730   0.6712   0.02654   0.01094  -0.0026   0.3503   1.0000  41.3891 160.0000
   5.740   0.6719   0.02658   0.01098  -0.0025   0.3488   1.0000  41.4867 160.0000
   5.750   0.6726   0.02662   0.01099  -0.0024   0.3472   1.0000  41.5793 160.0000
   5.760   0.6734   0.02665   0.01100  -0.0023   0.3458   1.0000  41.6667 160.0000
   5.770   0.6743   0.02668   0.01100  -0.0023   0.3445   1.0000  41.7493 160.0000
   5.780   0.6752   0.02672   0.01098  -0.0022   0.3432   1.0000  41.8274 160.0000
   5.790   0.6762   0.02675   0.01096  -0.0021   0.3420   1.0000  41.9013 160.0000
   5.800   0.6772   0.02679   0.01093  -0.0021   0.3409   1.0000  41.9717 160.0000
   5.810   0.6779   0.02684   0.01099  -0.0020   0.3394   1.0000  42.0611 160.0000
   5.820   0.6783   0.02691   0.01108  -0.0019   0.3377   1.0000  42.1681 160.0000
   5.830   0.6788   0.02696   0.01115  -0.0018   0.3360   1.0000  42.2701 160.0000
   5.840   0.6794   0.02701   0.01120  -0.0017   0.3344   1.0000  42.3682 160.0000
   5.850   0.6800   0.02706   0.01124  -0.0016   0.3329   1.0000  42.4621 160.0000
   5.860   0.6808   0.02710   0.01126  -0.0015   0.3314   1.0000  42.5518 160.0000
   5.870   0.6815   0.02713   0.01128  -0.0014   0.3301   1.0000  42.6371 160.0000
   5.880   0.6824   0.02717   0.01128  -0.0013   0.3287   1.0000  42.7183 160.0000
   5.890   0.6833   0.02720   0.01127  -0.0013   0.3275   1.0000  42.7950 160.0000
   5.900   0.6842   0.02723   0.01125  -0.0012   0.3263   1.0000  42.8678 160.0000
   5.910   0.6852   0.02727   0.01122  -0.0011   0.3252   1.0000  42.9372 160.0000
   5.920   0.6863   0.02731   0.01119  -0.0011   0.3241   1.0000  43.0059 160.0000
   5.930   0.6866   0.02738   0.01130  -0.0010   0.3225   1.0000  43.1055 160.0000
   5.940   0.6870   0.02744   0.01139  -0.0009   0.3209   1.0000  43.2034 160.0000
   5.950   0.6876   0.02750   0.01146  -0.0008   0.3194   1.0000  43.2984 160.0000
   5.960   0.6882   0.02755   0.01151  -0.0007   0.3179   1.0000  43.3900 160.0000
   5.970   0.6889   0.02759   0.01155  -0.0006   0.3164   1.0000  43.4780 160.0000
   5.980   0.6896   0.02763   0.01157  -0.0005   0.3151   1.0000  43.5622 160.0000
   5.990   0.6904   0.02767   0.01158  -0.0005   0.3138   1.0000  43.6423 160.0000
   6.000   0.6913   0.02771   0.01158  -0.0004   0.3126   1.0000  43.7186 160.0000
   6.010   0.6922   0.02774   0.01157  -0.0003   0.3114   1.0000  43.7911 160.0000
   6.020   0.6931   0.02778   0.01156  -0.0003   0.3103   1.0000  43.8600 160.0000
   6.030   0.6941   0.02782   0.01154  -0.0002   0.3092   1.0000  43.9256 160.0000
   6.040   0.6952   0.02787   0.01151  -0.0002   0.3082   1.0000  43.9886 160.0000
   6.050   0.6957   0.02793   0.01160  -0.0001   0.3069   1.0000  44.0712 160.0000
   6.060   0.6961   0.02800   0.01170   0.0000   0.3054   1.0000  44.1625 160.0000
   6.070   0.6967   0.02806   0.01178   0.0001   0.3040   1.0000  44.2499 160.0000
   6.080   0.6973   0.02812   0.01184   0.0002   0.3026   1.0000  44.3347 160.0000
   6.090   0.6979   0.02817   0.01189   0.0003   0.3013   1.0000  44.4165 160.0000
   6.100   0.6987   0.02822   0.01193   0.0004   0.3000   1.0000  44.4954 160.0000
   6.110   0.6994   0.02827   0.01196   0.0005   0.2988   1.0000  44.5713 160.0000
   6.120   0.7003   0.02831   0.01198   0.0005   0.2976   1.0000  44.6443 160.0000
   6.130   0.7011   0.02835   0.01198   0.0006   0.2965   1.0000  44.7143 160.0000
   6.140   0.7021   0.02839   0.01198   0.0006   0.2954   1.0000  44.7813 160.0000
   6.150   0.7030   0.02843   0.01197   0.0007   0.2944   1.0000  44.8453 160.0000
   6.160   0.7040   0.02847   0.01196   0.0008   0.2934   1.0000  44.9066 160.0000
   6.170   0.7051   0.02852   0.01193   0.0008   0.2925   1.0000  44.9657 160.0000
   6.180   0.7059   0.02858   0.01197   0.0008   0.2914   1.0000  45.0317 160.0000
   6.190   0.7063   0.02865   0.01208   0.0010   0.2901   1.0000  45.1130 160.0000
   6.200   0.7068   0.02872   0.01217   0.0011   0.2888   1.0000  45.1932 160.0000
   6.210   0.7073   0.02878   0.01225   0.0011   0.2875   1.0000  45.2725 160.0000
   6.220   0.7079   0.02884   0.01232   0.0012   0.2863   1.0000  45.3502 160.0000
   6.230   0.7086   0.02890   0.01237   0.0013   0.2851   1.0000  45.4259 160.0000
   6.240   0.7094   0.02895   0.01241   0.0014   0.2839   1.0000  45.4993 160.0000
   6.250   0.7101   0.02899   0.01243   0.0015   0.2827   1.0000  45.5704 160.0000
   6.260   0.7109   0.02904   0.01245   0.0015   0.2817   1.0000  45.6389 160.0000
   6.270   0.7118   0.02908   0.01246   0.0016   0.2806   1.0000  45.7048 160.0000
   6.280   0.7127   0.02912   0.01246   0.0016   0.2796   1.0000  45.7682 160.0000
   6.290   0.7137   0.02916   0.01245   0.0017   0.2786   1.0000  45.8291 160.0000
   6.300   0.7147   0.02920   0.01243   0.0017   0.2777   1.0000  45.8875 160.0000
   6.310   0.7158   0.02925   0.01241   0.0018   0.2768   1.0000  45.9439 160.0000
   6.320   0.7169   0.02930   0.01238   0.0018   0.2759   1.0000  45.9986 160.0000
   6.330   0.7173   0.02938   0.01250   0.0019   0.2748   1.0000  46.0693 160.0000
   6.340   0.7177   0.02945   0.01261   0.0020   0.2736   1.0000  46.1414 160.0000
   6.350   0.7182   0.02952   0.01270   0.0021   0.2725   1.0000  46.2132 160.0000
   6.360   0.7188   0.02958   0.01278   0.0022   0.2713   1.0000  46.2842 160.0000
   6.370   0.7194   0.02964   0.01285   0.0023   0.2702   1.0000  46.3537 160.0000
   6.380   0.7201   0.02970   0.01290   0.0024   0.2691   1.0000  46.4216 160.0000
   6.390   0.7208   0.02975   0.01295   0.0024   0.2681   1.0000  46.4876 160.0000
   6.400   0.7216   0.02980   0.01298   0.0025   0.2671   1.0000  46.5517 160.0000
   6.410   0.7224   0.02985   0.01301   0.0026   0.2661   1.0000  46.6136 160.0000
   6.420   0.7233   0.02990   0.01303   0.0026   0.2651   1.0000  46.6734 160.0000
   6.430   0.7242   0.02994   0.01304   0.0027   0.2642   1.0000  46.7309 160.0000
   6.440   0.7252   0.02999   0.01304   0.0027   0.2633   1.0000  46.7863 160.0000
   6.450   0.7262   0.03004   0.01304   0.0028   0.2625   1.0000  46.8398 160.0000
   6.460   0.7272   0.03009   0.01303   0.0028   0.2616   1.0000  46.8917 160.0000
   6.470   0.7283   0.03014   0.01302   0.0028   0.2608   1.0000  46.9420 160.0000
   6.480   0.7295   0.03021   0.01300   0.0028   0.2600   1.0000  46.9912 160.0000
   6.490   0.7300   0.03028   0.01310   0.0029   0.2591   1.0000  47.0490 160.0000
   6.500   0.7304   0.03036   0.01322   0.0030   0.2582   1.0000  47.1101 160.0000
   6.510   0.7309   0.03043   0.01332   0.0031   0.2572   1.0000  47.1717 160.0000
   6.520   0.7314   0.03051   0.01341   0.0032   0.2562   1.0000  47.2334 160.0000
   6.530   0.7320   0.03058   0.01349   0.0033   0.2552   1.0000  47.2949 160.0000
   6.540   0.7327   0.03064   0.01357   0.0034   0.2543   1.0000  47.3556 160.0000
   6.550   0.7334   0.03070   0.01363   0.0035   0.2533   1.0000  47.4154 160.0000
   6.560   0.7341   0.03076   0.01368   0.0035   0.2524   1.0000  47.4741 160.0000
   6.570   0.7349   0.03082   0.01372   0.0036   0.2515   1.0000  47.5316 160.0000
   6.580   0.7357   0.03087   0.01376   0.0037   0.2506   1.0000  47.5879 160.0000
   6.590   0.7365   0.03092   0.01378   0.0037   0.2497   1.0000  47.6430 160.0000
   6.600   0.7374   0.03096   0.01380   0.0038   0.2488   1.0000  47.6968 160.0000
   6.610   0.7384   0.03101   0.01381   0.0038   0.2480   1.0000  47.7492 160.0000
   6.620   0.7393   0.03106   0.01381   0.0039   0.2472   1.0000  47.8001 160.0000
   6.630   0.7403   0.03110   0.01380   0.0039   0.2464   1.0000  47.8496 160.0000
   6.640   0.7414   0.03115   0.01379   0.0039   0.2457   1.0000  47.8974 160.0000
   6.650   0.7425   0.03121   0.01377   0.0039   0.2449   1.0000  47.9440 160.0000
   6.660   0.7437   0.03128   0.01376   0.0039   0.2442   1.0000  47.9896 160.0000
   6.670   0.7442   0.03136   0.01385   0.0040   0.2434   1.0000  48.0397 160.0000
   6.680   0.7446   0.03144   0.01397   0.0041   0.2426   1.0000  48.0926 160.0000
   6.690   0.7450   0.03152   0.01408   0.0042   0.2417   1.0000  48.1463 160.0000
   6.700   0.7456   0.03159   0.01419   0.0043   0.2409   1.0000  48.2004 160.0000
   6.710   0.7461   0.03167   0.01428   0.0044   0.2400   1.0000  48.2544 160.0000
   6.720   0.7467   0.03174   0.01436   0.0045   0.2392   1.0000  48.3082 160.0000
   6.730   0.7474   0.03181   0.01443   0.0046   0.2383   1.0000  48.3607 160.0000
   6.740   0.7481   0.03187   0.01450   0.0046   0.2375   1.0000  48.4138 160.0000
   6.750   0.7488   0.03193   0.01456   0.0047   0.2367   1.0000  48.4654 160.0000
   6.760   0.7496   0.03199   0.01461   0.0048   0.2359   1.0000  48.5161 160.0000
   6.770   0.7504   0.03205   0.01465   0.0048   0.2351   1.0000  48.5655 160.0000
   6.780   0.7512   0.03211   0.01469   0.0049   0.2343   1.0000  48.6138 160.0000
   6.790   0.7521   0.03216   0.01472   0.0049   0.2336   1.0000  48.6608 160.0000
   6.800   0.7530   0.03221   0.01474   0.0050   0.2329   1.0000  48.7066 160.0000
   6.810   0.7539   0.03227   0.01476   0.0050   0.2322   1.0000  48.7512 160.0000
   6.820   0.7549   0.03232   0.01477   0.0051   0.2315   1.0000  48.7948 160.0000
   6.830   0.7559   0.03237   0.01477   0.0051   0.2308   1.0000  48.8375 160.0000
   6.840   0.7570   0.03243   0.01477   0.0051   0.2302   1.0000  48.8793 160.0000
   6.850   0.7581   0.03249   0.01477   0.0051   0.2295   1.0000  48.9201 160.0000
   6.860   0.7592   0.03256   0.01476   0.0052   0.2289   1.0000  48.9600 160.0000
   6.870   0.7604   0.03264   0.01475   0.0052   0.2283   1.0000  48.9992 160.0000
   6.880   0.7608   0.03273   0.01488   0.0053   0.2276   1.0000  49.0404 160.0000
   6.890   0.7612   0.03282   0.01501   0.0054   0.2270   1.0000  49.0830 160.0000
   6.900   0.7616   0.03290   0.01513   0.0055   0.2263   1.0000  49.1266 160.0000
   6.910   0.7621   0.03299   0.01525   0.0056   0.2256   1.0000  49.1708 160.0000
   6.920   0.7626   0.03307   0.01535   0.0057   0.2249   1.0000  49.2155 160.0000
   6.930   0.7632   0.03315   0.01545   0.0057   0.2242   1.0000  49.2604 160.0000
   6.940   0.7638   0.03323   0.01554   0.0058   0.2235   1.0000  49.3053 160.0000
   6.950   0.7645   0.03331   0.01562   0.0059   0.2228   1.0000  49.3502 160.0000
   6.960   0.7651   0.03338   0.01569   0.0060   0.2221   1.0000  49.3949 160.0000
   6.970   0.7659   0.03345   0.01576   0.0060   0.2214   1.0000  49.4392 160.0000
   6.980   0.7666   0.03351   0.01582   0.0061   0.2207   1.0000  49.4832 160.0000
   6.990   0.7673   0.03358   0.01587   0.0062   0.2200   1.0000  49.5267 160.0000
   7.000   0.7681   0.03364   0.01592   0.0062   0.2193   1.0000  49.5698 160.0000
   7.010   0.7690   0.03369   0.01596   0.0063   0.2187   1.0000  49.6123 160.0000
   7.020   0.7698   0.03375   0.01599   0.0063   0.2180   1.0000  49.6540 160.0000
   7.030   0.7707   0.03381   0.01602   0.0064   0.2174   1.0000  49.6952 160.0000
   7.040   0.7716   0.03386   0.01604   0.0064   0.2167   1.0000  49.7357 160.0000
   7.050   0.7726   0.03391   0.01605   0.0064   0.2161   1.0000  49.7756 160.0000
   7.060   0.7736   0.03396   0.01606   0.0065   0.2155   1.0000  49.8148 160.0000
   7.070   0.7747   0.03402   0.01606   0.0065   0.2149   1.0000  49.8533 160.0000
   7.080   0.7757   0.03408   0.01606   0.0065   0.2143   1.0000  49.8910 160.0000
   7.090   0.7769   0.03414   0.01605   0.0065   0.2137   1.0000  49.9279 160.0000
   7.100   0.7780   0.03422   0.01604   0.0065   0.2132   1.0000  49.9639 160.0000
   7.110   0.7792   0.03431   0.01604   0.0065   0.2126   1.0000  49.9992 160.0000
   7.120   0.7795   0.03440   0.01617   0.0066   0.2121   1.0000  50.0326 160.0000
   7.130   0.7799   0.03450   0.01631   0.0067   0.2116   1.0000  50.0659 160.0000
   7.140   0.7803   0.03459   0.01644   0.0068   0.2110   1.0000  50.1010 160.0000
   7.150   0.7807   0.03468   0.01657   0.0069   0.2105   1.0000  50.1367 160.0000
   7.160   0.7812   0.03478   0.01669   0.0070   0.2099   1.0000  50.1727 160.0000
   7.170   0.7816   0.03487   0.01680   0.0071   0.2094   1.0000  50.2089 160.0000
   7.180   0.7822   0.03496   0.01691   0.0072   0.2088   1.0000  50.2452 160.0000
   7.190   0.7827   0.03505   0.01701   0.0073   0.2082   1.0000  50.2814 160.0000
   7.200   0.7833   0.03513   0.01711   0.0074   0.2077   1.0000  50.3173 160.0000
   7.210   0.7840   0.03522   0.01720   0.0074   0.2071   1.0000  50.3530 160.0000
   7.220   0.7846   0.03530   0.01729   0.0075   0.2066   1.0000  50.3882 160.0000
   7.230   0.7853   0.03538   0.01737   0.0076   0.2060   1.0000  50.4230 160.0000
   7.240   0.7860   0.03546   0.01745   0.0076   0.2055   1.0000  50.4585 160.0000
   7.250   0.7867   0.03554   0.01752   0.0077   0.2049   1.0000  50.4931 160.0000
   7.260   0.7875   0.03561   0.01758   0.0078   0.2044   1.0000  50.5278 160.0000
   7.270   0.7883   0.03568   0.01764   0.0078   0.2039   1.0000  50.5623 160.0000
   7.280   0.7892   0.03575   0.01769   0.0079   0.2033   1.0000  50.5968 160.0000
   7.290   0.7900   0.03581   0.01773   0.0079   0.2028   1.0000  50.6308 160.0000
   7.300   0.7908   0.03588   0.01778   0.0080   0.2023   1.0000  50.6650 160.0000
   7.310   0.7917   0.03594   0.01781   0.0080   0.2018   1.0000  50.6988 160.0000
   7.320   0.7926   0.03600   0.01784   0.0080   0.2012   1.0000  50.7323 160.0000
   7.330   0.7936   0.03606   0.01787   0.0081   0.2007   1.0000  50.7656 160.0000
   7.340   0.7946   0.03612   0.01789   0.0081   0.2002   1.0000  50.7987 160.0000
   7.350   0.7956   0.03618   0.01790   0.0081   0.1997   1.0000  50.8314 160.0000
   7.360   0.7966   0.03624   0.01791   0.0082   0.1992   1.0000  50.8639 160.0000
   7.370   0.7977   0.03631   0.01791   0.0082   0.1987   1.0000  50.8960 160.0000
   7.380   0.7989   0.03638   0.01791   0.0082   0.1982   1.0000  50.9276 160.0000
   7.390   0.8000   0.03646   0.01791   0.0082   0.1977   1.0000  50.9587 160.0000
   7.400   0.8012   0.03656   0.01790   0.0082   0.1972   1.0000  50.9893 160.0000
   7.410   0.8018   0.03667   0.01800   0.0082   0.1968   1.0000  51.0160 160.0000
   7.420   0.8021   0.03677   0.01815   0.0083   0.1965   1.0000  51.0405 160.0000
   7.430   0.8024   0.03687   0.01830   0.0084   0.1960   1.0000  51.0668 160.0000
   7.440   0.8027   0.03698   0.01844   0.0086   0.1956   1.0000  51.0937 160.0000
   7.450   0.8030   0.03708   0.01858   0.0087   0.1952   1.0000  51.1211 160.0000
   7.460   0.8034   0.03719   0.01871   0.0088   0.1948   1.0000  51.1490 160.0000
   7.470   0.8038   0.03729   0.01884   0.0089   0.1944   1.0000  51.1774 160.0000
   7.480   0.8042   0.03739   0.01896   0.0089   0.1939   1.0000  51.2060 160.0000
   7.490   0.8046   0.03749   0.01908   0.0090   0.1935   1.0000  51.2347 160.0000
   7.500   0.8051   0.03759   0.01920   0.0091   0.1930   1.0000  51.2637 160.0000
   7.510   0.8056   0.03769   0.01931   0.0092   0.1926   1.0000  51.2928 160.0000
   7.520   0.8061   0.03779   0.01942   0.0093   0.1921   1.0000  51.3220 160.0000
   7.530   0.8066   0.03788   0.01952   0.0094   0.1917   1.0000  51.3511 160.0000
   7.540   0.8072   0.03797   0.01962   0.0094   0.1912   1.0000  51.3802 160.0000
   7.550   0.8078   0.03806   0.01971   0.0095   0.1908   1.0000  51.4094 160.0000
   7.560   0.8084   0.03815   0.01980   0.0096   0.1903   1.0000  51.4385 160.0000
   7.570   0.8090   0.03824   0.01988   0.0096   0.1899   1.0000  51.4676 160.0000
   7.580   0.8097   0.03832   0.01996   0.0097   0.1894   1.0000  51.4966 160.0000
   7.590   0.8104   0.03840   0.02003   0.0098   0.1890   1.0000  51.5256 160.0000
   7.600   0.8111   0.03848   0.02010   0.0098   0.1886   1.0000  51.5545 160.0000
   7.610   0.8119   0.03855   0.02016   0.0099   0.1881   1.0000  51.5833 160.0000
   7.620   0.8127   0.03862   0.02022   0.0099   0.1877   1.0000  51.6125 160.0000
   7.630   0.8135   0.03869   0.02027   0.0100   0.1872   1.0000  51.6408 160.0000
   7.640   0.8144   0.03876   0.02031   0.0100   0.1868   1.0000  51.6690 160.0000
   7.650   0.8153   0.03883   0.02035   0.0100   0.1864   1.0000  51.6969 160.0000
   7.660   0.8163   0.03889   0.02038   0.0101   0.1859   1.0000  51.7246 160.0000
   7.670   0.8172   0.03896   0.02042   0.0101   0.1855   1.0000  51.7517 160.0000
   7.680   0.8181   0.03903   0.02045   0.0101   0.1851   1.0000  51.7774 160.0000
   7.690   0.8191   0.03910   0.02049   0.0102   0.1847   1.0000  51.8032 160.0000
   7.700   0.8200   0.03917   0.02052   0.0102   0.1843   1.0000  51.8288 160.0000
   7.710   0.8211   0.03924   0.02054   0.0102   0.1840   1.0000  51.8541 160.0000
   7.720   0.8221   0.03932   0.02057   0.0102   0.1836   1.0000  51.8789 160.0000
   7.730   0.8232   0.03940   0.02059   0.0103   0.1832   1.0000  51.9034 160.0000
   7.740   0.8243   0.03949   0.02060   0.0103   0.1828   1.0000  51.9279 160.0000
   7.750   0.8254   0.03959   0.02062   0.0103   0.1824   1.0000  51.9523 160.0000
   7.760   0.8266   0.03970   0.02064   0.0102   0.1821   1.0000  51.9764 160.0000
   7.770   0.8277   0.03982   0.02065   0.0102   0.1817   1.0000  52.0000 160.0000
   7.780   0.8279   0.03994   0.02082   0.0103   0.1815   1.0000  52.0161 160.0000
   7.790   0.8281   0.04006   0.02098   0.0105   0.1812   1.0000  52.0319 160.0000
   7.800   0.8283   0.04018   0.02114   0.0106   0.1810   1.0000  52.0488 160.0000
   7.810   0.8285   0.04030   0.02129   0.0107   0.1807   1.0000  52.0662 160.0000
   7.820   0.8287   0.04042   0.02145   0.0108   0.1804   1.0000  52.0838 160.0000
   7.830   0.8289   0.04055   0.02160   0.0109   0.1802   1.0000  52.1018 160.0000
   7.840   0.8291   0.04067   0.02176   0.0110   0.1799   1.0000  52.1200 160.0000
   7.850   0.8294   0.04079   0.02191   0.0111   0.1796   1.0000  52.1386 160.0000
   7.860   0.8296   0.04091   0.02205   0.0112   0.1793   1.0000  52.1573 160.0000
   7.870   0.8299   0.04104   0.02220   0.0113   0.1790   1.0000  52.1763 160.0000
   7.880   0.8301   0.04116   0.02234   0.0114   0.1788   1.0000  52.1955 160.0000
   7.890   0.8304   0.04128   0.02248   0.0115   0.1785   1.0000  52.2150 160.0000
   7.900   0.8307   0.04140   0.02262   0.0116   0.1782   1.0000  52.2346 160.0000
   7.910   0.8310   0.04152   0.02276   0.0117   0.1779   1.0000  52.2545 160.0000
   7.920   0.8314   0.04164   0.02289   0.0117   0.1776   1.0000  52.2745 160.0000
   7.930   0.8317   0.04176   0.02302   0.0118   0.1772   1.0000  52.2948 160.0000
   7.940   0.8321   0.04187   0.02315   0.0119   0.1769   1.0000  52.3152 160.0000
   7.950   0.8324   0.04199   0.02328   0.0120   0.1766   1.0000  52.3358 160.0000
   7.960   0.8328   0.04210   0.02340   0.0121   0.1763   1.0000  52.3565 160.0000
   7.970   0.8332   0.04221   0.02352   0.0122   0.1760   1.0000  52.3773 160.0000
   7.980   0.8336   0.04232   0.02363   0.0122   0.1757   1.0000  52.3983 160.0000
   7.990   0.8341   0.04243   0.02374   0.0123   0.1754   1.0000  52.4195 160.0000
   8.000   0.8345   0.04253   0.02385   0.0124   0.1750   1.0000  52.4408 160.0000
   8.010   0.8350   0.04264   0.02396   0.0124   0.1747   1.0000  52.4622 160.0000
   8.010   0.8350   0.04264   0.02396   0.0124   0.1747   1.0000  52.4622 160.0000
   8.010   0.8350   0.04264   0.02396   0.0124   0.1747   1.0000  52.4622 160.0000
   8.010   0.8350   0.04264   0.02396   0.0124   0.1747   1.0000  52.4622 160.0000
   8.010   0.8350   0.04264   0.02396   0.0124   0.1747   1.0000  52.4622 160.0000
   8.010   0.8350   0.04264   0.02396   0.0124   0.1747   1.0000  52.4622 160.0000
   8.010   0.8350   0.04264   0.02396   0.0124   0.1747   1.0000  52.4622 160.0000
   8.010   0.8350   0.04264   0.02396   0.0124   0.1747   1.0000  52.4622 160.0000
   8.010   0.8350   0.04264   0.02396   0.0124   0.1747   1.0000  52.4622 160.0000
   8.010   0.8350   0.04264   0.02396   0.0124   0.1747   1.0000  52.4622 160.0000
   8.010   0.8350   0.04264   0.02396   0.0124   0.1747   1.0000  52.4622 160.0000
   8.010   0.8350   0.04264   0.02396   0.0124   0.1747   1.0000  52.4622 160.0000
   8.010   0.8350   0.04264   0.02396   0.0124   0.1747   1.0000  52.4622 160.0000
   8.010   0.8350   0.04264   0.02396   0.0124   0.1747   1.0000  52.4622 160.0000
   8.010   0.8350   0.04264   0.02396   0.0124   0.1747   1.0000  52.4622 160.0000
   8.010   0.8350   0.04264   0.02396   0.0124   0.1747   1.0000  52.4622 160.0000
   8.010   0.8350   0.04264   0.02396   0.0124   0.1747   1.0000  52.4622 160.0000
   8.010   0.8350   0.04264   0.02396   0.0124   0.1747   1.0000  52.4622 160.0000
   8.010   0.8350   0.04264   0.02396   0.0124   0.1747   1.0000  52.4622 160.0000
   8.010   0.8350   0.04264   0.02396   0.0124   0.1747   1.0000  52.4622 160.0000
   8.010   0.8350   0.04264   0.02396   0.0124   0.1747   1.0000  52.4622 160.0000
   8.010   0.8350   0.04264   0.02396   0.0124   0.1747   1.0000  52.4622 160.0000
   8.010   0.8350   0.04264   0.02396   0.0124   0.1747   1.0000  52.4622 160.0000
   8.010   0.8350   0.04264   0.02396   0.0124   0.1747   1.0000  52.4622 160.0000
   8.010   0.8350   0.04264   0.02396   0.0124   0.1747   1.0000  52.4622 160.0000
   8.010   0.8350   0.04264   0.02396   0.0124   0.1747   1.0000  52.4622 160.0000
   8.010   0.8350   0.04264   0.02396   0.0124   0.1747   1.0000  52.4622 160.0000
   8.010   0.8350   0.04264   0.02396   0.0124   0.1747   1.0000  52.4622 160.0000
   8.010   0.8350   0.04264   0.02396   0.0124   0.1747   1.0000  52.4622 160.0000
   8.010   0.8350   0.04264   0.02396   0.0124   0.1747   1.0000  52.4622 160.0000
   8.010   0.8350   0.04264   0.02396   0.0124   0.1747   1.0000  52.4622 160.0000
   8.010   0.8350   0.04264   0.02396   0.0124   0.1747   1.0000  52.4622 160.0000
   8.010   0.8350   0.04264   0.02396   0.0124   0.1747   1.0000  52.4622 160.0000
   8.010   0.8350   0.04264   0.02396   0.0124   0.1747   1.0000  52.4622 160.0000
   8.010   0.8350   0.04264   0.02396   0.0124   0.1747   1.0000  52.4622 160.0000
   8.010   0.8350   0.04264   0.02396   0.0124   0.1747   1.0000  52.4622 160.0000
   8.010   0.8350   0.04264   0.02396   0.0124   0.1747   1.0000  52.4622 160.0000
   8.010   0.8350   0.04264   0.02396   0.0124   0.1747   1.0000  52.4622 160.0000
   8.010   0.8350   0.04264   0.02396   0.0124   0.1747   1.0000  52.4622 160.0000
   8.010   0.8350   0.04264   0.02396   0.0124   0.1747   1.0000  52.4622 160.0000
   8.010   0.8350   0.04264   0.02396   0.0124   0.1747   1.0000  52.4622 160.0000
   8.010   0.8350   0.04264   0.02396   0.0124   0.1747   1.0000  52.4622 160.0000
   8.010   0.8350   0.04264   0.02396   0.0124   0.1747   1.0000  52.4622 160.0000
   8.010   0.8350   0.04264   0.02396   0.0124   0.1747   1.0000  52.4622 160.0000
   8.010   0.8350   0.04264   0.02396   0.0124   0.1747   1.0000  52.4622 160.0000
   8.010   0.8350   0.04264   0.02396   0.0124   0.1747   1.0000  52.4622 160.0000
   8.010   0.8350   0.04264   0.02396   0.0124   0.1747   1.0000  52.4622 160.0000
   8.010   0.8350   0.04264   0.02396   0.0124   0.1747   1.0000  52.4622 160.0000
   8.010   0.8350   0.04264   0.02396   0.0124   0.1747   1.0000  52.4622 160.0000
   8.010   0.8350   0.04264   0.02396   0.0124   0.1747   1.0000  52.4622 160.0000
   8.010   0.8350   0.04264   0.02396   0.0124   0.1747   1.0000  52.4622 160.0000
   8.010   0.8350   0.04264   0.02396   0.0124   0.1747   1.0000  52.4622 160.0000
   8.010   0.8350   0.04264   0.02396   0.0124   0.1747   1.0000  52.4622 160.0000
   8.010   0.8350   0.04264   0.02396   0.0124   0.1747   1.0000  52.4622 160.0000
   8.010   0.8350   0.04264   0.02396   0.0124   0.1747   1.0000  52.4622 160.0000
   8.010   0.8350   0.04264   0.02396   0.0124   0.1747   1.0000  52.4622 160.0000
   8.010   0.8350   0.04264   0.02396   0.0124   0.1747   1.0000  52.4622 160.0000
   8.010   0.8350   0.04264   0.02396   0.0124   0.1747   1.0000  52.4622 160.0000
   8.010   0.8350   0.04264   0.02396   0.0124   0.1747   1.0000  52.4622 160.0000
   8.010   0.8350   0.04264   0.02396   0.0124   0.1747   1.0000  52.4622 160.0000
   8.010   0.8350   0.04264   0.02396   0.0124   0.1747   1.0000  52.4622 160.0000
   8.010   0.8350   0.04264   0.02396   0.0124   0.1747   1.0000  52.4622 160.0000
   8.010   0.8350   0.04264   0.02396   0.0124   0.1747   1.0000  52.4622 160.0000
   8.010   0.8350   0.04264   0.02396   0.0124   0.1747   1.0000  52.4622 160.0000
   8.010   0.8350   0.04264   0.02396   0.0124   0.1747   1.0000  52.4622 160.0000
   8.010   0.8350   0.04264   0.02396   0.0124   0.1747   1.0000  52.4622 160.0000
   8.010   0.8350   0.04264   0.02396   0.0124   0.1747   1.0000  52.4622 160.0000
   8.010   0.8350   0.04264   0.02396   0.0124   0.1747   1.0000  52.4622 160.0000
   8.010   0.8350   0.04264   0.02396   0.0124   0.1747   1.0000  52.4622 160.0000
   8.010   0.8350   0.04264   0.02396   0.0124   0.1747   1.0000  52.4622 160.0000
   8.010   0.8350   0.04264   0.02396   0.0124   0.1747   1.0000  52.4622 160.0000
   8.010   0.8350   0.04264   0.02396   0.0124   0.1747   1.0000  52.4622 160.0000
   8.010   0.8350   0.04264   0.02396   0.0124   0.1747   1.0000  52.4622 160.0000
   8.010   0.8350   0.04264   0.02396   0.0124   0.1747   1.0000  52.4622 160.0000
   8.010   0.8350   0.04264   0.02396   0.0124   0.1747   1.0000  52.4622 160.0000
   8.010   0.8350   0.04264   0.02396   0.0124   0.1747   1.0000  52.4622 160.0000
   8.010   0.8350   0.04264   0.02396   0.0124   0.1747   1.0000  52.4622 160.0000
   8.010   0.8350   0.04264   0.02396   0.0124   0.1747   1.0000  52.4622 160.0000
   8.010   0.8350   0.04264   0.02396   0.0124   0.1747   1.0000  52.4622 160.0000
   8.010   0.8350   0.04264   0.02396   0.0124   0.1747   1.0000  52.4622 160.0000
   8.010   0.8350   0.04264   0.02396   0.0124   0.1747   1.0000  52.4622 160.0000
   8.010   0.8350   0.04264   0.02396   0.0124   0.1747   1.0000  52.4622 160.0000
   8.010   0.8350   0.04264   0.02396   0.0124   0.1747   1.0000  52.4622 160.0000
   8.010   0.8350   0.04264   0.02396   0.0124   0.1747   1.0000  52.4622 160.0000
   8.010   0.8350   0.04264   0.02396   0.0124   0.1747   1.0000  52.4622 160.0000
   8.010   0.8350   0.04264   0.02396   0.0124   0.1747   1.0000  52.4622 160.0000
   8.010   0.8350   0.04264   0.02396   0.0124   0.1747   1.0000  52.4622 160.0000
   8.010   0.8350   0.04264   0.02396   0.0124   0.1747   1.0000  52.4622 160.0000
   8.010   0.8350   0.04264   0.02396   0.0124   0.1747   1.0000  52.4622 160.0000
   8.010   0.8350   0.04264   0.02396   0.0124   0.1747   1.0000  52.4622 160.0000
   8.010   0.8350   0.04264   0.02396   0.0124   0.1747   1.0000  52.4622 160.0000
   8.010   0.8350   0.04264   0.02396   0.0124   0.1747   1.0000  52.4622 160.0000
   8.010   0.8350   0.04264   0.02396   0.0124   0.1747   1.0000  52.4622 160.0000
   8.010   0.8350   0.04264   0.02396   0.0124   0.1747   1.0000  52.4622 160.0000
   8.010   0.8350   0.04264   0.02396   0.0124   0.1747   1.0000  52.4622 160.0000
   8.010   0.8350   0.04264   0.02396   0.0124   0.1747   1.0000  52.4622 160.0000
   8.010   0.8350   0.04264   0.02396   0.0124   0.1747   1.0000  52.4622 160.0000
   8.010   0.8350   0.04264   0.02396   0.0124   0.1747   1.0000  52.4622 160.0000
   8.010   0.8350   0.04264   0.02396   0.0124   0.1747   1.0000  52.4622 160.0000
   8.010   0.8350   0.04264   0.02396   0.0124   0.1747   1.0000  52.4622 160.0000
   8.010   0.8350   0.04264   0.02396   0.0124   0.1747   1.0000  52.4622 160.0000
   8.010   0.8350   0.04264   0.02396   0.0124   0.1747   1.0000  52.4622 160.0000
   8.010   0.8350   0.04264   0.02396   0.0124   0.1747   1.0000  52.4622 160.0000
   8.010   0.8350   0.04264   0.02396   0.0124   0.1747   1.0000  52.4622 160.0000
   8.010   0.8350   0.04264   0.02396   0.0124   0.1747   1.0000  52.4622 160.0000
   8.010   0.8350   0.04264   0.02396   0.0124   0.1747   1.0000  52.4622 160.0000
   8.010   0.8350   0.04264   0.02396   0.0124   0.1747   1.0000  52.4622 160.0000
   8.010   0.8350   0.04264   0.02396   0.0124   0.1747   1.0000  52.4622 160.0000
   8.010   0.8350   0.04264   0.02396   0.0124   0.1747   1.0000  52.4622 160.0000
   8.010   0.8350   0.04264   0.02396   0.0124   0.1747   1.0000  52.4622 160.0000
   8.010   0.8350   0.04264   0.02396   0.0124   0.1747   1.0000  52.4622 160.0000
   8.010   0.8350   0.04264   0.02396   0.0124   0.1747   1.0000  52.4622 160.0000
   8.010   0.8350   0.04264   0.02396   0.0124   0.1747   1.0000  52.4622 160.0000
   8.010   0.8350   0.04264   0.02396   0.0124   0.1747   1.0000  52.4622 160.0000
   8.010   0.8350   0.04264   0.02396   0.0124   0.1747   1.0000  52.4622 160.0000
   8.010   0.8350   0.04264   0.02396   0.0124   0.1747   1.0000  52.4622 160.0000
   8.010   0.8350   0.04264   0.02396   0.0124   0.1747   1.0000  52.4622 160.0000
   8.010   0.8350   0.04264   0.02396   0.0124   0.1747   1.0000  52.4622 160.0000
   8.010   0.8350   0.04264   0.02396   0.0124   0.1747   1.0000  52.4622 160.0000
   8.010   0.8350   0.04264   0.02396   0.0124   0.1747   1.0000  52.4622 160.0000
   8.010   0.8350   0.04264   0.02396   0.0124   0.1747   1.0000  52.4622 160.0000
   8.010   0.8350   0.04264   0.02396   0.0124   0.1747   1.0000  52.4622 160.0000
   8.010   0.8350   0.04264   0.02396   0.0124   0.1747   1.0000  52.4622 160.0000
   8.010   0.8350   0.04264   0.02396   0.0124   0.1747   1.0000  52.4622 160.0000
   8.010   0.8350   0.04264   0.02396   0.0124   0.1747   1.0000  52.4622 160.0000
   8.010   0.8350   0.04264   0.02396   0.0124   0.1747   1.0000  52.4622 160.0000
   8.010   0.8350   0.04264   0.02396   0.0124   0.1747   1.0000  52.4622 160.0000
   8.010   0.8350   0.04264   0.02396   0.0124   0.1747   1.0000  52.4622 160.0000
   8.010   0.8350   0.04264   0.02396   0.0124   0.1747   1.0000  52.4622 160.0000
   8.010   0.8350   0.04264   0.02396   0.0124   0.1747   1.0000  52.4622 160.0000
   8.010   0.8350   0.04264   0.02396   0.0124   0.1747   1.0000  52.4622 160.0000
   8.010   0.8350   0.04264   0.02396   0.0124   0.1747   1.0000  52.4622 160.0000
   8.010   0.8350   0.04264   0.02396   0.0124   0.1747   1.0000  52.4622 160.0000
   8.010   0.8350   0.04264   0.02396   0.0124   0.1747   1.0000  52.4622 160.0000
   8.010   0.8350   0.04264   0.02396   0.0124   0.1747   1.0000  52.4622 160.0000
   8.010   0.8350   0.04264   0.02396   0.0124   0.1747   1.0000  52.4622 160.0000
   8.010   0.8350   0.04264   0.02396   0.0124   0.1747   1.0000  52.4622 160.0000
   8.010   0.8350   0.04264   0.02396   0.0124   0.1747   1.0000  52.4622 160.0000
   8.010   0.8350   0.04264   0.02396   0.0124   0.1747   1.0000  52.4622 160.0000
   8.010   0.8350   0.04264   0.02396   0.0124   0.1747   1.0000  52.4622 160.0000
   8.010   0.8350   0.04264   0.02396   0.0124   0.1747   1.0000  52.4622 160.0000
   8.010   0.8350   0.04264   0.02396   0.0124   0.1747   1.0000  52.4622 160.0000
   8.010   0.8350   0.04264   0.02396   0.0124   0.1747   1.0000  52.4622 160.0000
   8.010   0.8350   0.04264   0.02396   0.0124   0.1747   1.0000  52.4622 160.0000
   8.010   0.8350   0.04264   0.02396   0.0124   0.1747   1.0000  52.4622 160.0000
   8.010   0.8350   0.04264   0.02396   0.0124   0.1747   1.0000  52.4622 160.0000
   8.010   0.8350   0.04264   0.02396   0.0124   0.1747   1.0000  52.4622 160.0000
   8.010   0.8350   0.04264   0.02396   0.0124   0.1747   1.0000  52.4622 160.0000
   8.010   0.8350   0.04264   0.02396   0.0124   0.1747   1.0000  52.4622 160.0000
   8.010   0.8350   0.04264   0.02396   0.0124   0.1747   1.0000  52.4622 160.0000
   8.010   0.8350   0.04264   0.02396   0.0124   0.1747   1.0000  52.4622 160.0000
   8.010   0.8350   0.04264   0.02396   0.0124   0.1747   1.0000  52.4622 160.0000
   8.010   0.8350   0.04264   0.02396   0.0124   0.1747   1.0000  52.4622 160.0000
   8.010   0.8350   0.04264   0.02396   0.0124   0.1747   1.0000  52.4622 160.0000
   8.010   0.8350   0.04264   0.02396   0.0124   0.1747   1.0000  52.4622 160.0000
   8.010   0.8350   0.04264   0.02396   0.0124   0.1747   1.0000  52.4622 160.0000
   8.010   0.8350   0.04264   0.02396   0.0124   0.1747   1.0000  52.4622 160.0000
   8.010   0.8350   0.04264   0.02396   0.0124   0.1747   1.0000  52.4622 160.0000
   8.010   0.8350   0.04264   0.02396   0.0124   0.1747   1.0000  52.4622 160.0000
[...]
   8.010   0.8350   0.04264   0.02396   0.0124   0.1747   1.0000  52.4622 160.0000
   8.010   0.8350   0.04264   0.02396   0.0124   0.1747   1.0000  52.4622 160.0000
   8.010   0.8350   0.04264   0.02396   0.0124   0.1747   1.0000  52.4622 160.0000
   8.010   0.8350   0.04264   0.02396   0.0124   0.1747   1.0000  52.4622 160.0000
   8.010   0.8350   0.04264   0.02396   0.0124   0.1747   1.0000  52.4622 160.0000
   8.010   0.8350   0.04264   0.02396   0.0124   0.1747   1.0000  52.4622 160.0000
   8.010   0.8350   0.04264   0.02396   0.0124   0.1747   1.0000  52.4622 160.0000
   8.010   0.8350   0.04264   0.02396   0.0124   0.1747   1.0000  52.4622 160.0000
   8.010   0.8350   0.04264   0.02396   0.0124   0.1747   1.0000  52.4622 160.0000
   8.010   0.8350   0.04264   0.02396   0.0124   0.1747   1.0000  52.4622 160.0000
   8.010   0.8350   0.04264   0.02396   0.0124   0.1747   1.0000  52.4622 160.0000
   8.010   0.8350   0.04264   0.02396   0.0124   0.1747   1.0000  52.4622 160.0000
   8.010   0.8350   0.04264   0.02396   0.0124   0.1747   1.0000  52.4622 160.0000
   8.010   0.8350   0.04264   0.02396   0.0124   0.1747   1.0000  52.4622 160.0000
   8.010   0.8350   0.04264   0.02396   0.0124   0.1747   1.0000  52.4622 160.0000
   8.010   0.8350   0.04264   0.02396   0.0124   0.1747   1.0000  52.4622 160.0000
   8.010   0.8350   0.04264   0.02396   0.0124   0.1747   1.0000  52.4622 160.0000
   8.010   0.8350   0.04264   0.02396   0.0124   0.1747   1.0000  52.4622 160.0000
   8.010   0.8350   0.04264   0.02396   0.0124   0.1747   1.0000  52.4622 160.0000
   8.010   0.8350   0.04264   0.02396   0.0124   0.1747   1.0000  52.4622 160.0000
   8.010   0.8350   0.04264   0.02396   0.0124   0.1747   1.0000  52.4622 160.0000
   8.010   0.8350   0.04264   0.02396   0.0124   0.1747   1.0000  52.4622 160.0000
   8.010   0.8350   0.04264   0.02396   0.0124   0.1747   1.0000  52.4622 160.0000
   8.010   0.8350   0.04264   0.02396   0.0124   0.1747   1.0000  52.4622 160.0000
   8.010   0.8350   0.04264   0.02396   0.0124   0.1747   1.0000  52.4622 160.0000
   8.010   0.8350   0.04264   0.02396   0.0124   0.1747   1.0000  52.4622 160.0000
   8.010   0.8350   0.04264   0.02396   0.0124   0.1747   1.0000  52.4622 160.0000
   8.010   0.8350   0.04264   0.02396   0.0124   0.1747   1.0000  52.4622 160.0000
   8.010   0.8350   0.04264   0.02396   0.0124   0.1747   1.0000  52.4622 160.0000
   8.010   0.8350   0.04264   0.02396   0.0124   0.1747   1.0000  52.4622 160.0000
   8.010   0.8350   0.04264   0.02396   0.0124   0.1747   1.0000  52.4622 160.0000
   8.010   0.8350   0.04264   0.02396   0.0124   0.1747   1.0000  52.4622 160.0000
   8.010   0.8350   0.04264   0.02396   0.0124   0.1747   1.0000  52.4622 160.0000
   8.010   0.8350   0.04264   0.02396   0.0124   0.1747   1.0000  52.4622 160.0000
   8.010   0.8350   0.04264   0.02396   0.0124   0.1747   1.0000  52.4622 160.0000
   8.010   0.8350   0.04264   0.02396   0.0124   0.1747   1.0000  52.4622 160.0000
   8.010   0.8350   0.04264   0.02396   0.0124   0.1747   1.0000  52.4622 160.0000
   8.010   0.8350   0.04264   0.02396   0.0124   0.1747   1.0000  52.4622 160.0000
   8.010   0.8350   0.04264   0.02396   0.0124   0.1747   1.0000  52.4622 160.0000
   8.010   0.8350   0.04264   0.02396   0.0124   0.1747   1.0000  52.4622 160.0000
   8.010   0.8350   0.04264   0.02396   0.0124   0.1747   1.0000  52.4622 160.0000
   8.010   0.8350   0.04264   0.02396   0.0124   0.1747   1.0000  52.4622 160.0000
   8.010   0.8350   0.04264   0.02396   0.0124   0.1747   1.0000  52.4622 160.0000
   8.010   0.8350   0.04264   0.02396   0.0124   0.1747   1.0000  52.4622 160.0000
   8.010   0.8350   0.04264   0.02396   0.0124   0.1747   1.0000  52.4622 160.0000
   8.010   0.8350   0.04264   0.02396   0.0124   0.1747   1.0000  52.4622 160.0000
   8.010   0.8350   0.04264   0.02396   0.0124   0.1747   1.0000  52.4622 160.0000
   8.010   0.8350   0.04264   0.02396   0.0124   0.1747   1.0000  52.4622 160.0000
   8.010   0.8350   0.04264   0.02396   0.0124   0.1747   1.0000  52.4622 160.0000
   8.010   0.8350   0.04264   0.02396   0.0124   0.1747   1.0000  52.4622 160.0000
   8.010   0.8350   0.04264   0.02396   0.0124   0.1747   1.0000  52.4622 160.0000
   8.010   0.8350   0.04264   0.02396   0.0124   0.1747   1.0000  52.4622 160.0000
   8.010   0.8350   0.04264   0.02396   0.0124   0.1747   1.0000  52.4622 160.0000
   8.010   0.8350   0.04264   0.02396   0.0124   0.1747   1.0000  52.4622 160.0000
   8.010   0.8350   0.04264   0.02396   0.0124   0.1747   1.0000  52.4622 160.0000
   8.010   0.8350   0.04264   0.02396   0.0124   0.1747   1.0000  52.4622 160.0000
   8.010   0.8350   0.04264   0.02396   0.0124   0.1747   1.0000  52.4622 160.0000
   8.010   0.8350   0.04264   0.02396   0.0124   0.1747   1.0000  52.4622 160.0000
   8.010   0.8350   0.04264   0.02396   0.0124   0.1747   1.0000  52.4622 160.0000
   8.010   0.8350   0.04264   0.02396   0.0124   0.1747   1.0000  52.4622 160.0000
   8.010   0.8350   0.04264   0.02396   0.0124   0.1747   1.0000  52.4622 160.0000
   8.010   0.8350   0.04264   0.02396   0.0124   0.1747   1.0000  52.4622 160.0000
   8.010   0.8350   0.04264   0.02396   0.0124   0.1747   1.0000  52.4622 160.0000
   8.010   0.8350   0.04264   0.02396   0.0124   0.1747   1.0000  52.4622 160.0000
   8.010   0.8350   0.04264   0.02396   0.0124   0.1747   1.0000  52.4622 160.0000
   8.010   0.8350   0.04264   0.02396   0.0124   0.1747   1.0000  52.4622 160.0000
   8.010   0.8350   0.04264   0.02396   0.0124   0.1747   1.0000  52.4622 160.0000
   8.010   0.8350   0.04264   0.02396   0.0124   0.1747   1.0000  52.4622 160.0000
   8.010   0.8350   0.04264   0.02396   0.0124   0.1747   1.0000  52.4622 160.0000
   8.010   0.8350   0.04264   0.02396   0.0124   0.1747   1.0000  52.4622 160.0000
   8.010   0.8350   0.04264   0.02396   0.0124   0.1747   1.0000  52.4622 160.0000
   8.010   0.8350   0.04264   0.02396   0.0124   0.1747   1.0000  52.4622 160.0000
   8.010   0.8350   0.04264   0.02396   0.0124   0.1747   1.0000  52.4622 160.0000
   8.010   0.8350   0.04264   0.02396   0.0124   0.1747   1.0000  52.4622 160.0000
   8.010   0.8350   0.04264   0.02396   0.0124   0.1747   1.0000  52.4622 160.0000
   8.010   0.8350   0.04264   0.02396   0.0124   0.1747   1.0000  52.4622 160.0000
   8.010   0.8350   0.04264   0.02396   0.0124   0.1747   1.0000  52.4622 160.0000
   8.010   0.8350   0.04264   0.02396   0.0124   0.1747   1.0000  52.4622 160.0000
   8.010   0.8350   0.04264   0.02396   0.0124   0.1747   1.0000  52.4622 160.0000
   8.010   0.8350   0.04264   0.02396   0.0124   0.1747   1.0000  52.4622 160.0000
   8.010   0.8350   0.04264   0.02396   0.0124   0.1747   1.0000  52.4622 160.0000
   8.010   0.8350   0.04264   0.02396   0.0124   0.1747   1.0000  52.4622 160.0000
   8.010   0.8350   0.04264   0.02396   0.0124   0.1747   1.0000  52.4622 160.0000
   8.010   0.8350   0.04264   0.02396   0.0124   0.1747   1.0000  52.4622 160.0000
   8.010   0.8350   0.04264   0.02396   0.0124   0.1747   1.0000  52.4622 160.0000
   8.010   0.8350   0.04264   0.02396   0.0124   0.1747   1.0000  52.4622 160.0000
   8.010   0.8350   0.04264   0.02396   0.0124   0.1747   1.0000  52.4622 160.0000
   8.010   0.8350   0.04264   0.02396   0.0124   0.1747   1.0000  52.4622 160.0000
   8.010   0.8350   0.04264   0.02396   0.0124   0.1747   1.0000  52.4622 160.0000
   8.010   0.8350   0.04264   0.02396   0.0124   0.1747   1.0000  52.4622 160.0000
   8.010   0.8350   0.04264   0.02396   0.0124   0.1747   1.0000  52.4622 160.0000
   8.010   0.8350   0.04264   0.02396   0.0124   0.1747   1.0000  52.4622 160.0000
   8.010   0.8350   0.04264   0.02396   0.0124   0.1747   1.0000  52.4622 160.0000
   8.010   0.8350   0.04264   0.02396   0.0124   0.1747   1.0000  52.4622 160.0000
   8.010   0.8350   0.04264   0.02396   0.0124   0.1747   1.0000  52.4622 160.0000
   8.010   0.8350   0.04264   0.02396   0.0124   0.1747   1.0000  52.4622 160.0000
   8.010   0.8350   0.04264   0.02396   0.0124   0.1747   1.0000  52.4622 160.0000
   8.010   0.8350   0.04264   0.02396   0.0124   0.1747   1.0000  52.4622 160.0000
   8.010   0.8350   0.04264   0.02396   0.0124   0.1747   1.0000  52.4622 160.0000
   8.010   0.8350   0.04264   0.02396   0.0124   0.1747   1.0000  52.4622 160.0000
   8.010   0.8350   0.04264   0.02396   0.0124   0.1747   1.0000  52.4622 160.0000
   8.010   0.8350   0.04264   0.02396   0.0124   0.1747   1.0000  52.4622 160.0000
   8.010   0.8350   0.04264   0.02396   0.0124   0.1747   1.0000  52.4622 160.0000
   8.010   0.8350   0.04264   0.02396   0.0124   0.1747   1.0000  52.4622 160.0000
   8.010   0.8350   0.04264   0.02396   0.0124   0.1747   1.0000  52.4622 160.0000
   8.010   0.8350   0.04264   0.02396   0.0124   0.1747   1.0000  52.4622 160.0000
   8.010   0.8350   0.04264   0.02396   0.0124   0.1747   1.0000  52.4622 160.0000
   8.010   0.8350   0.04264   0.02396   0.0124   0.1747   1.0000  52.4622 160.0000
   8.010   0.8350   0.04264   0.02396   0.0124   0.1747   1.0000  52.4622 160.0000
   8.010   0.8350   0.04264   0.02396   0.0124   0.1747   1.0000  52.4622 160.0000
   8.010   0.8350   0.04264   0.02396   0.0124   0.1747   1.0000  52.4622 160.0000
   8.010   0.8350   0.04264   0.02396   0.0124   0.1747   1.0000  52.4622 160.0000
   8.010   0.8350   0.04264   0.02396   0.0124   0.1747   1.0000  52.4622 160.0000
   8.010   0.8350   0.04264   0.02396   0.0124   0.1747   1.0000  52.4622 160.0000
   8.010   0.8350   0.04264   0.02396   0.0124   0.1747   1.0000  52.4622 160.0000
   8.010   0.8350   0.04264   0.02396   0.0124   0.1747   1.0000  52.4622 160.0000
   8.010   0.8350   0.04264   0.02396   0.0124   0.1747   1.0000  52.4622 160.0000
   8.010   0.8350   0.04264   0.02396   0.0124   0.1747   1.0000  52.4622 160.0000
   8.010   0.8350   0.04264   0.02396   0.0124   0.1747   1.0000  52.4622 160.0000
   8.010   0.8350   0.04264   0.02396   0.0124   0.1747   1.0000  52.4622 160.0000
   8.010   0.8350   0.04264   0.02396   0.0124   0.1747   1.0000  52.4622 160.0000
   8.010   0.8350   0.04264   0.02396   0.0124   0.1747   1.0000  52.4622 160.0000
   8.010   0.8350   0.04264   0.02396   0.0124   0.1747   1.0000  52.4622 160.0000
   8.010   0.8350   0.04264   0.02396   0.0124   0.1747   1.0000  52.4622 160.0000
   8.010   0.8350   0.04264   0.02396   0.0124   0.1747   1.0000  52.4622 160.0000
   8.010   0.8350   0.04264   0.02396   0.0124   0.1747   1.0000  52.4622 160.0000
   8.010   0.8350   0.04264   0.02396   0.0124   0.1747   1.0000  52.4622 160.0000
   8.010   0.8350   0.04264   0.02396   0.0124   0.1747   1.0000  52.4622 160.0000
   8.010   0.8350   0.04264   0.02396   0.0124   0.1747   1.0000  52.4622 160.0000
   8.010   0.8350   0.04264   0.02396   0.0124   0.1747   1.0000  52.4622 160.0000
   8.010   0.8350   0.04264   0.02396   0.0124   0.1747   1.0000  52.4622 160.0000
   8.010   0.8350   0.04264   0.02396   0.0124   0.1747   1.0000  52.4622 160.0000
   8.010   0.8350   0.04264   0.02396   0.0124   0.1747   1.0000  52.4622 160.0000
   8.010   0.8350   0.04264   0.02396   0.0124   0.1747   1.0000  52.4622 160.0000
   8.010   0.8350   0.04264   0.02396   0.0124   0.1747   1.0000  52.4622 160.0000
   8.010   0.8350   0.04264   0.02396   0.0124   0.1747   1.0000  52.4622 160.0000
   8.010   0.8350   0.04264   0.02396   0.0124   0.1747   1.0000  52.4622 160.0000
   8.010   0.8350   0.04264   0.02396   0.0124   0.1747   1.0000  52.4622 160.0000
   8.010   0.8350   0.04264   0.02396   0.0124   0.1747   1.0000  52.4622 160.0000
   8.010   0.8350   0.04264   0.02396   0.0124   0.1747   1.0000  52.4622 160.0000
   8.010   0.8350   0.04264   0.02396   0.0124   0.1747   1.0000  52.4622 160.0000
   8.010   0.8350   0.04264   0.02396   0.0124   0.1747   1.0000  52.4622 160.0000
   8.010   0.8350   0.04264   0.02396   0.0124   0.1747   1.0000  52.4622 160.0000
   8.010   0.8350   0.04264   0.02396   0.0124   0.1747   1.0000  52.4622 160.0000
   8.010   0.8350   0.04264   0.02396   0.0124   0.1747   1.0000  52.4622 160.0000
   8.010   0.8350   0.04264   0.02396   0.0124   0.1747   1.0000  52.4622 160.0000
   8.010   0.8350   0.04264   0.02396   0.0124   0.1747   1.0000  52.4622 160.0000
   8.010   0.8350   0.04264   0.02396   0.0124   0.1747   1.0000  52.4622 160.0000
   8.010   0.8350   0.04264   0.02396   0.0124   0.1747   1.0000  52.4622 160.0000
   8.010   0.8350   0.04264   0.02396   0.0124   0.1747   1.0000  52.4622 160.0000
   8.010   0.8350   0.04264   0.02396   0.0124   0.1747   1.0000  52.4622 160.0000
   8.010   0.8350   0.04264   0.02396   0.0124   0.1747   1.0000  52.4622 160.0000
   8.010   0.8350   0.04264   0.02396   0.0124   0.1747   1.0000  52.4622 160.0000
   8.010   0.8350   0.04264   0.02396   0.0124   0.1747   1.0000  52.4622 160.0000
   8.010   0.8350   0.04264   0.02396   0.0124   0.1747   1.0000  52.4622 160.0000
   8.010   0.8350   0.04264   0.02396   0.0124   0.1747   1.0000  52.4622 160.0000
   8.010   0.8350   0.04264   0.02396   0.0124   0.1747   1.0000  52.4622 160.0000
   8.010   0.8350   0.04264   0.02396   0.0124   0.1747   1.0000  52.4622 160.0000
   8.010   0.8350   0.04264   0.02396   0.0124   0.1747   1.0000  52.4622 160.0000
   8.010   0.8350   0.04264   0.02396   0.0124   0.1747   1.0000  52.4622 160.0000
   8.010   0.8350   0.04264   0.02396   0.0124   0.1747   1.0000  52.4622 160.0000
   8.010   0.8350   0.04264   0.02396   0.0124   0.1747   1.0000  52.4622 160.0000
   8.010   0.8350   0.04264   0.02396   0.0124   0.1747   1.0000  52.4622 160.0000
   8.010   0.8350   0.04264   0.02396   0.0124   0.1747   1.0000  52.4622 160.0000
   8.010   0.8350   0.04264   0.02396   0.0124   0.1747   1.0000  52.4622 160.0000
   8.010   0.8350   0.04264   0.02396   0.0124   0.1747   1.0000  52.4622 160.0000
   8.010   0.8350   0.04264   0.02396   0.0124   0.1747   1.0000  52.4622 160.0000
   8.010   0.8350   0.04264   0.02396   0.0124   0.1747   1.0000  52.4622 160.0000
   8.010   0.8350   0.04264   0.02396   0.0124   0.1747   1.0000  52.4622 160.0000
   8.010   0.8350   0.04264   0.02396   0.0124   0.1747   1.0000  52.4622 160.0000
   8.010   0.8350   0.04264   0.02396   0.0124   0.1747   1.0000  52.4622 160.0000
   8.010   0.8350   0.04264   0.02396   0.0124   0.1747   1.0000  52.4622 160.0000
   8.010   0.8350   0.04264   0.02396   0.0124   0.1747   1.0000  52.4622 160.0000
   8.010   0.8350   0.04264   0.02396   0.0124   0.1747   1.0000  52.4622 160.0000
   8.010   0.8350   0.04264   0.02396   0.0124   0.1747   1.0000  52.4622 160.0000
   8.010   0.8350   0.04264   0.02396   0.0124   0.1747   1.0000  52.4622 160.0000
   8.010   0.8350   0.04264   0.02396   0.0124   0.1747   1.0000  52.4622 160.0000
   8.010   0.8350   0.04264   0.02396   0.0124   0.1747   1.0000  52.4622 160.0000
   8.010   0.8350   0.04264   0.02396   0.0124   0.1747   1.0000  52.4622 160.0000
   8.010   0.8350   0.04264   0.02396   0.0124   0.1747   1.0000  52.4622 160.0000
   8.010   0.8350   0.04264   0.02396   0.0124   0.1747   1.0000  52.4622 160.0000
   8.010   0.8350   0.04264   0.02396   0.0124   0.1747   1.0000  52.4622 160.0000
   8.010   0.8350   0.04264   0.02396   0.0124   0.1747   1.0000  52.4622 160.0000
   8.010   0.8350   0.04264   0.02396   0.0124   0.1747   1.0000  52.4622 160.0000
   8.010   0.8350   0.04264   0.02396   0.0124   0.1747   1.0000  52.4622 160.0000
   8.010   0.8350   0.04264   0.02396   0.0124   0.1747   1.0000  52.4622 160.0000
   8.010   0.8350   0.04264   0.02396   0.0124   0.1747   1.0000  52.4622 160.0000
   8.010   0.8350   0.04264   0.02396   0.0124   0.1747   1.0000  52.4622 160.0000
   8.010   0.8350   0.04264   0.02396   0.0124   0.1747   1.0000  52.4622 160.0000
   8.010   0.8350   0.04264   0.02396   0.0124   0.1747   1.0000  52.4622 160.0000
   8.010   0.8350   0.04264   0.02396   0.0124   0.1747   1.0000  52.4622 160.0000
   8.010   0.8350   0.04264   0.02396   0.0124   0.1747   1.0000  52.4622 160.0000
   8.010   0.8350   0.04264   0.02396   0.0124   0.1747   1.0000  52.4622 160.0000
   8.010   0.8350   0.04264   0.02396   0.0124   0.1747   1.0000  52.4622 160.0000
   8.010   0.8350   0.04264   0.02396   0.0124   0.1747   1.0000  52.4622 160.0000
   8.010   0.8350   0.04264   0.02396   0.0124   0.1747   1.0000  52.4622 160.0000
   8.010   0.8350   0.04264   0.02396   0.0124   0.1747   1.0000  52.4622 160.0000
   8.010   0.8350   0.04264   0.02396   0.0124   0.1747   1.0000  52.4622 160.0000
   8.010   0.8350   0.04264   0.02396   0.0124   0.1747   1.0000  52.4622 160.0000
   8.010   0.8350   0.04264   0.02396   0.0124   0.1747   1.0000  52.4622 160.0000
   8.010   0.8350   0.04264   0.02396   0.0124   0.1747   1.0000  52.4622 160.0000
   8.010   0.8350   0.04264   0.02396   0.0124   0.1747   1.0000  52.4622 160.0000
   8.010   0.8350   0.04264   0.02396   0.0124   0.1747   1.0000  52.4622 160.0000
   8.010   0.8350   0.04264   0.02396   0.0124   0.1747   1.0000  52.4622 160.0000
   8.010   0.8350   0.04264   0.02396   0.0124   0.1747   1.0000  52.4622 160.0000
   8.010   0.8350   0.04264   0.02396   0.0124   0.1747   1.0000  52.4622 160.0000
   8.010   0.8350   0.04264   0.02396   0.0124   0.1747   1.0000  52.4622 160.0000
   8.010   0.8350   0.04264   0.02396   0.0124   0.1747   1.0000  52.4622 160.0000
   8.010   0.8350   0.04264   0.02396   0.0124   0.1747   1.0000  52.4622 160.0000
   8.010   0.8350   0.04264   0.02396   0.0124   0.1747   1.0000  52.4622 160.0000
   8.010   0.8350   0.04264   0.02396   0.0124   0.1747   1.0000  52.4622 160.0000
   8.010   0.8350   0.04264   0.02396   0.0124   0.1747   1.0000  52.4622 160.0000
   8.010   0.8350   0.04264   0.02396   0.0124   0.1747   1.0000  52.4622 160.0000
   8.010   0.8350   0.04264   0.02396   0.0124   0.1747   1.0000  52.4622 160.0000
   8.010   0.8350   0.04264   0.02396   0.0124   0.1747   1.0000  52.4622 160.0000
   8.010   0.8350   0.04264   0.02396   0.0124   0.1747   1.0000  52.4622 160.0000
   8.010   0.8350   0.04264   0.02396   0.0124   0.1747   1.0000  52.4622 160.0000
   8.010   0.8350   0.04264   0.02396   0.0124   0.1747   1.0000  52.4622 160.0000
   8.010   0.8350   0.04264   0.02396   0.0124   0.1747   1.0000  52.4622 160.0000
   8.010   0.8350   0.04264   0.02396   0.0124   0.1747   1.0000  52.4622 160.0000
   8.010   0.8350   0.04264   0.02396   0.0124   0.1747   1.0000  52.4622 160.0000
   8.010   0.8350   0.04264   0.02396   0.0124   0.1747   1.0000  52.4622 160.0000
   8.010   0.8350   0.04264   0.02396   0.0124   0.1747   1.0000  52.4622 160.0000
   8.010   0.8350   0.04264   0.02396   0.0124   0.1747   1.0000  52.4622 160.0000
   8.010   0.8350   0.04264   0.02396   0.0124   0.1747   1.0000  52.4622 160.0000
   8.010   0.8350   0.04264   0.02396   0.0124   0.1747   1.0000  52.4622 160.0000
   8.010   0.8350   0.04264   0.02396   0.0124   0.1747   1.0000  52.4622 160.0000
   8.010   0.8350   0.04264   0.02396   0.0124   0.1747   1.0000  52.4622 160.0000
   8.010   0.8350   0.04264   0.02396   0.0124   0.1747   1.0000  52.4622 160.0000
   8.010   0.8350   0.04264   0.02396   0.0124   0.1747   1.0000  52.4622 160.0000
   8.010   0.8350   0.04264   0.02396   0.0124   0.1747   1.0000  52.4622 160.0000
   8.010   0.8350   0.04264   0.02396   0.0124   0.1747   1.0000  52.4622 160.0000
   8.010   0.8350   0.04264   0.02396   0.0124   0.1747   1.0000  52.4622 160.0000
   8.010   0.8350   0.04264   0.02396   0.0124   0.1747   1.0000  52.4622 160.0000
   8.010   0.8350   0.04264   0.02396   0.0124   0.1747   1.0000  52.4622 160.0000
   8.010   0.8350   0.04264   0.02396   0.0124   0.1747   1.0000  52.4622 160.0000
   8.010   0.8350   0.04264   0.02396   0.0124   0.1747   1.0000  52.4622 160.0000
   8.010   0.8350   0.04264   0.02396   0.0124   0.1747   1.0000  52.4622 160.0000
   8.010   0.8350   0.04264   0.02396   0.0124   0.1747   1.0000  52.4622 160.0000
   8.010   0.8350   0.04264   0.02396   0.0124   0.1747   1.0000  52.4622 160.0000
